# generated using pymatgen
data_LiSbO2
_symmetry_space_group_name_H-M   'P 1'
_cell_length_a   28.66586513
_cell_length_b   28.66586513
_cell_length_c   28.66586513
_cell_angle_alpha   90.00000000
_cell_angle_beta   90.00000000
_cell_angle_gamma   90.00000000
_symmetry_Int_Tables_number   1
_chemical_formula_structural   LiSbO2
_chemical_formula_sum   'Li288 Sb288 O576'
_cell_volume   23555.65362762
_cell_formula_units_Z   288
loop_
 _symmetry_equiv_pos_site_id
 _symmetry_equiv_pos_as_xyz
  1  'x, y, z'
loop_
 _atom_site_type_symbol
 _atom_site_label
 _atom_site_symmetry_multiplicity
 _atom_site_fract_x
 _atom_site_fract_y
 _atom_site_fract_z
 _atom_site_occupancy
  Li  Li0  1  0.50000000  0.43049091  0.43049091  1
  Li  Li1  1  0.50000000  0.56950909  0.43049091  1
  Li  Li2  1  0.50000000  0.43049091  0.56950909  1
  Li  Li3  1  0.50000000  0.56950909  0.56950909  1
  Li  Li4  1  0.43049091  0.50000000  0.43049091  1
  Li  Li5  1  0.43049091  0.50000000  0.56950909  1
  Li  Li6  1  0.56950909  0.50000000  0.43049091  1
  Li  Li7  1  0.56950909  0.50000000  0.56950909  1
  Li  Li8  1  0.43049091  0.43049091  0.50000000  1
  Li  Li9  1  0.56950909  0.43049091  0.50000000  1
  Li  Li10  1  0.43049091  0.56950909  0.50000000  1
  Li  Li11  1  0.56950909  0.56950909  0.50000000  1
  Li  Li12  1  0.50000000  0.93049091  0.93049091  1
  Li  Li13  1  0.50000000  0.06950909  0.93049091  1
  Li  Li14  1  0.50000000  0.93049091  0.06950909  1
  Li  Li15  1  0.50000000  0.06950909  0.06950909  1
  Li  Li16  1  0.43049091  0.00000000  0.93049091  1
  Li  Li17  1  0.43049091  0.00000000  0.06950909  1
  Li  Li18  1  0.56950909  0.00000000  0.93049091  1
  Li  Li19  1  0.56950909  0.00000000  0.06950909  1
  Li  Li20  1  0.43049091  0.93049091  0.00000000  1
  Li  Li21  1  0.56950909  0.93049091  0.00000000  1
  Li  Li22  1  0.43049091  0.06950909  0.00000000  1
  Li  Li23  1  0.56950909  0.06950909  -0.00000000  1
  Li  Li24  1  0.00000000  0.43049091  0.93049091  1
  Li  Li25  1  0.00000000  0.56950909  0.93049091  1
  Li  Li26  1  0.00000000  0.43049091  0.06950909  1
  Li  Li27  1  0.00000000  0.56950909  0.06950909  1
  Li  Li28  1  0.93049091  0.50000000  0.93049091  1
  Li  Li29  1  0.93049091  0.50000000  0.06950909  1
  Li  Li30  1  0.06950909  0.50000000  0.93049091  1
  Li  Li31  1  0.06950909  0.50000000  0.06950909  1
  Li  Li32  1  0.93049091  0.43049091  0.00000000  1
  Li  Li33  1  0.06950909  0.43049091  0.00000000  1
  Li  Li34  1  0.93049091  0.56950909  0.00000000  1
  Li  Li35  1  0.06950909  0.56950909  -0.00000000  1
  Li  Li36  1  0.00000000  0.93049091  0.43049091  1
  Li  Li37  1  0.00000000  0.06950909  0.43049091  1
  Li  Li38  1  0.00000000  0.93049091  0.56950909  1
  Li  Li39  1  0.00000000  0.06950909  0.56950909  1
  Li  Li40  1  0.93049091  0.00000000  0.43049091  1
  Li  Li41  1  0.93049091  0.00000000  0.56950909  1
  Li  Li42  1  0.06950909  0.00000000  0.43049091  1
  Li  Li43  1  0.06950909  0.00000000  0.56950909  1
  Li  Li44  1  0.93049091  0.93049091  0.50000000  1
  Li  Li45  1  0.06950909  0.93049091  0.50000000  1
  Li  Li46  1  0.93049091  0.06950909  0.50000000  1
  Li  Li47  1  0.06950909  0.06950909  0.50000000  1
  Li  Li48  1  0.97286211  0.97286211  0.80766358  1
  Li  Li49  1  0.02713789  0.02713789  0.80766358  1
  Li  Li50  1  0.02713789  0.97286211  0.19233642  1
  Li  Li51  1  0.97286211  0.02713789  0.19233642  1
  Li  Li52  1  0.80766358  0.97286211  0.97286211  1
  Li  Li53  1  0.80766358  0.02713789  0.02713789  1
  Li  Li54  1  0.19233642  0.02713789  0.97286211  1
  Li  Li55  1  0.19233642  0.97286211  0.02713789  1
  Li  Li56  1  0.97286211  0.80766358  0.97286211  1
  Li  Li57  1  0.02713789  0.80766358  0.02713789  1
  Li  Li58  1  0.97286211  0.19233642  0.02713789  1
  Li  Li59  1  0.02713789  0.19233642  0.97286211  1
  Li  Li60  1  0.97286211  0.97286211  0.19233642  1
  Li  Li61  1  0.02713789  0.02713789  0.19233642  1
  Li  Li62  1  0.97286211  0.02713789  0.80766358  1
  Li  Li63  1  0.02713789  0.97286211  0.80766358  1
  Li  Li64  1  0.97286211  0.80766358  0.02713789  1
  Li  Li65  1  0.02713789  0.80766358  0.97286211  1
  Li  Li66  1  0.02713789  0.19233642  0.02713789  1
  Li  Li67  1  0.97286211  0.19233642  0.97286211  1
  Li  Li68  1  0.80766358  0.97286211  0.02713789  1
  Li  Li69  1  0.80766358  0.02713789  0.97286211  1
  Li  Li70  1  0.19233642  0.97286211  0.97286211  1
  Li  Li71  1  0.19233642  0.02713789  0.02713789  1
  Li  Li72  1  0.97286211  0.47286211  0.30766358  1
  Li  Li73  1  0.02713789  0.52713789  0.30766358  1
  Li  Li74  1  0.02713789  0.47286211  0.69233642  1
  Li  Li75  1  0.97286211  0.52713789  0.69233642  1
  Li  Li76  1  0.80766358  0.47286211  0.47286211  1
  Li  Li77  1  0.80766358  0.52713789  0.52713789  1
  Li  Li78  1  0.19233642  0.52713789  0.47286211  1
  Li  Li79  1  0.19233642  0.47286211  0.52713789  1
  Li  Li80  1  0.97286211  0.30766358  0.47286211  1
  Li  Li81  1  0.02713789  0.30766358  0.52713789  1
  Li  Li82  1  0.97286211  0.69233642  0.52713789  1
  Li  Li83  1  0.02713789  0.69233642  0.47286211  1
  Li  Li84  1  0.97286211  0.47286211  0.69233642  1
  Li  Li85  1  0.02713789  0.52713789  0.69233642  1
  Li  Li86  1  0.97286211  0.52713789  0.30766358  1
  Li  Li87  1  0.02713789  0.47286211  0.30766358  1
  Li  Li88  1  0.97286211  0.30766358  0.52713789  1
  Li  Li89  1  0.02713789  0.30766358  0.47286211  1
  Li  Li90  1  0.02713789  0.69233642  0.52713789  1
  Li  Li91  1  0.97286211  0.69233642  0.47286211  1
  Li  Li92  1  0.80766358  0.47286211  0.52713789  1
  Li  Li93  1  0.80766358  0.52713789  0.47286211  1
  Li  Li94  1  0.19233642  0.47286211  0.47286211  1
  Li  Li95  1  0.19233642  0.52713789  0.52713789  1
  Li  Li96  1  0.47286211  0.97286211  0.30766358  1
  Li  Li97  1  0.52713789  0.02713789  0.30766358  1
  Li  Li98  1  0.52713789  0.97286211  0.69233642  1
  Li  Li99  1  0.47286211  0.02713789  0.69233642  1
  Li  Li100  1  0.30766358  0.97286211  0.47286211  1
  Li  Li101  1  0.30766358  0.02713789  0.52713789  1
  Li  Li102  1  0.69233642  0.02713789  0.47286211  1
  Li  Li103  1  0.69233642  0.97286211  0.52713789  1
  Li  Li104  1  0.47286211  0.80766358  0.47286211  1
  Li  Li105  1  0.52713789  0.80766358  0.52713789  1
  Li  Li106  1  0.47286211  0.19233642  0.52713789  1
  Li  Li107  1  0.52713789  0.19233642  0.47286211  1
  Li  Li108  1  0.47286211  0.97286211  0.69233642  1
  Li  Li109  1  0.52713789  0.02713789  0.69233642  1
  Li  Li110  1  0.47286211  0.02713789  0.30766358  1
  Li  Li111  1  0.52713789  0.97286211  0.30766358  1
  Li  Li112  1  0.47286211  0.80766358  0.52713789  1
  Li  Li113  1  0.52713789  0.80766358  0.47286211  1
  Li  Li114  1  0.52713789  0.19233642  0.52713789  1
  Li  Li115  1  0.47286211  0.19233642  0.47286211  1
  Li  Li116  1  0.30766358  0.97286211  0.52713789  1
  Li  Li117  1  0.30766358  0.02713789  0.47286211  1
  Li  Li118  1  0.69233642  0.97286211  0.47286211  1
  Li  Li119  1  0.69233642  0.02713789  0.52713789  1
  Li  Li120  1  0.47286211  0.47286211  0.80766358  1
  Li  Li121  1  0.52713789  0.52713789  0.80766358  1
  Li  Li122  1  0.52713789  0.47286211  0.19233642  1
  Li  Li123  1  0.47286211  0.52713789  0.19233642  1
  Li  Li124  1  0.30766358  0.47286211  0.97286211  1
  Li  Li125  1  0.30766358  0.52713789  0.02713789  1
  Li  Li126  1  0.69233642  0.52713789  0.97286211  1
  Li  Li127  1  0.69233642  0.47286211  0.02713789  1
  Li  Li128  1  0.47286211  0.30766358  0.97286211  1
  Li  Li129  1  0.52713789  0.30766358  0.02713789  1
  Li  Li130  1  0.47286211  0.69233642  0.02713789  1
  Li  Li131  1  0.52713789  0.69233642  0.97286211  1
  Li  Li132  1  0.47286211  0.47286211  0.19233642  1
  Li  Li133  1  0.52713789  0.52713789  0.19233642  1
  Li  Li134  1  0.47286211  0.52713789  0.80766358  1
  Li  Li135  1  0.52713789  0.47286211  0.80766358  1
  Li  Li136  1  0.47286211  0.30766358  0.02713789  1
  Li  Li137  1  0.52713789  0.30766358  0.97286211  1
  Li  Li138  1  0.52713789  0.69233642  0.02713789  1
  Li  Li139  1  0.47286211  0.69233642  0.97286211  1
  Li  Li140  1  0.30766358  0.47286211  0.02713789  1
  Li  Li141  1  0.30766358  0.52713789  0.97286211  1
  Li  Li142  1  0.69233642  0.47286211  0.97286211  1
  Li  Li143  1  0.69233642  0.52713789  0.02713789  1
  Li  Li144  1  0.93673668  0.93673668  0.62307928  1
  Li  Li145  1  0.06326332  0.06326332  0.62307928  1
  Li  Li146  1  0.06326332  0.93673668  0.37692072  1
  Li  Li147  1  0.93673668  0.06326332  0.37692072  1
  Li  Li148  1  0.62307928  0.93673668  0.93673668  1
  Li  Li149  1  0.62307928  0.06326332  0.06326332  1
  Li  Li150  1  0.37692072  0.06326332  0.93673668  1
  Li  Li151  1  0.37692072  0.93673668  0.06326332  1
  Li  Li152  1  0.93673668  0.62307928  0.93673668  1
  Li  Li153  1  0.06326332  0.62307928  0.06326332  1
  Li  Li154  1  0.93673668  0.37692072  0.06326332  1
  Li  Li155  1  0.06326332  0.37692072  0.93673668  1
  Li  Li156  1  0.93673668  0.93673668  0.37692072  1
  Li  Li157  1  0.06326332  0.06326332  0.37692072  1
  Li  Li158  1  0.93673668  0.06326332  0.62307928  1
  Li  Li159  1  0.06326332  0.93673668  0.62307928  1
  Li  Li160  1  0.93673668  0.62307928  0.06326332  1
  Li  Li161  1  0.06326332  0.62307928  0.93673668  1
  Li  Li162  1  0.06326332  0.37692072  0.06326332  1
  Li  Li163  1  0.93673668  0.37692072  0.93673668  1
  Li  Li164  1  0.62307928  0.93673668  0.06326332  1
  Li  Li165  1  0.62307928  0.06326332  0.93673668  1
  Li  Li166  1  0.37692072  0.93673668  0.93673668  1
  Li  Li167  1  0.37692072  0.06326332  0.06326332  1
  Li  Li168  1  0.93673668  0.43673668  0.12307928  1
  Li  Li169  1  0.06326332  0.56326332  0.12307928  1
  Li  Li170  1  0.06326332  0.43673668  0.87692072  1
  Li  Li171  1  0.93673668  0.56326332  0.87692072  1
  Li  Li172  1  0.62307928  0.43673668  0.43673668  1
  Li  Li173  1  0.62307928  0.56326332  0.56326332  1
  Li  Li174  1  0.37692072  0.56326332  0.43673668  1
  Li  Li175  1  0.37692072  0.43673668  0.56326332  1
  Li  Li176  1  0.93673668  0.12307928  0.43673668  1
  Li  Li177  1  0.06326332  0.12307928  0.56326332  1
  Li  Li178  1  0.93673668  0.87692072  0.56326332  1
  Li  Li179  1  0.06326332  0.87692072  0.43673668  1
  Li  Li180  1  0.93673668  0.43673668  0.87692072  1
  Li  Li181  1  0.06326332  0.56326332  0.87692072  1
  Li  Li182  1  0.93673668  0.56326332  0.12307928  1
  Li  Li183  1  0.06326332  0.43673668  0.12307928  1
  Li  Li184  1  0.93673668  0.12307928  0.56326332  1
  Li  Li185  1  0.06326332  0.12307928  0.43673668  1
  Li  Li186  1  0.06326332  0.87692072  0.56326332  1
  Li  Li187  1  0.93673668  0.87692072  0.43673668  1
  Li  Li188  1  0.62307928  0.43673668  0.56326332  1
  Li  Li189  1  0.62307928  0.56326332  0.43673668  1
  Li  Li190  1  0.37692072  0.43673668  0.43673668  1
  Li  Li191  1  0.37692072  0.56326332  0.56326332  1
  Li  Li192  1  0.43673668  0.93673668  0.12307928  1
  Li  Li193  1  0.56326332  0.06326332  0.12307928  1
  Li  Li194  1  0.56326332  0.93673668  0.87692072  1
  Li  Li195  1  0.43673668  0.06326332  0.87692072  1
  Li  Li196  1  0.12307928  0.93673668  0.43673668  1
  Li  Li197  1  0.12307928  0.06326332  0.56326332  1
  Li  Li198  1  0.87692072  0.06326332  0.43673668  1
  Li  Li199  1  0.87692072  0.93673668  0.56326332  1
  Li  Li200  1  0.43673668  0.62307928  0.43673668  1
  Li  Li201  1  0.56326332  0.62307928  0.56326332  1
  Li  Li202  1  0.43673668  0.37692072  0.56326332  1
  Li  Li203  1  0.56326332  0.37692072  0.43673668  1
  Li  Li204  1  0.43673668  0.93673668  0.87692072  1
  Li  Li205  1  0.56326332  0.06326332  0.87692072  1
  Li  Li206  1  0.43673668  0.06326332  0.12307928  1
  Li  Li207  1  0.56326332  0.93673668  0.12307928  1
  Li  Li208  1  0.43673668  0.62307928  0.56326332  1
  Li  Li209  1  0.56326332  0.62307928  0.43673668  1
  Li  Li210  1  0.56326332  0.37692072  0.56326332  1
  Li  Li211  1  0.43673668  0.37692072  0.43673668  1
  Li  Li212  1  0.12307928  0.93673668  0.56326332  1
  Li  Li213  1  0.12307928  0.06326332  0.43673668  1
  Li  Li214  1  0.87692072  0.93673668  0.43673668  1
  Li  Li215  1  0.87692072  0.06326332  0.56326332  1
  Li  Li216  1  0.43673668  0.43673668  0.62307928  1
  Li  Li217  1  0.56326332  0.56326332  0.62307928  1
  Li  Li218  1  0.56326332  0.43673668  0.37692072  1
  Li  Li219  1  0.43673668  0.56326332  0.37692072  1
  Li  Li220  1  0.12307928  0.43673668  0.93673668  1
  Li  Li221  1  0.12307928  0.56326332  0.06326332  1
  Li  Li222  1  0.87692072  0.56326332  0.93673668  1
  Li  Li223  1  0.87692072  0.43673668  0.06326332  1
  Li  Li224  1  0.43673668  0.12307928  0.93673668  1
  Li  Li225  1  0.56326332  0.12307928  0.06326332  1
  Li  Li226  1  0.43673668  0.87692072  0.06326332  1
  Li  Li227  1  0.56326332  0.87692072  0.93673668  1
  Li  Li228  1  0.43673668  0.43673668  0.37692072  1
  Li  Li229  1  0.56326332  0.56326332  0.37692072  1
  Li  Li230  1  0.43673668  0.56326332  0.62307928  1
  Li  Li231  1  0.56326332  0.43673668  0.62307928  1
  Li  Li232  1  0.43673668  0.12307928  0.06326332  1
  Li  Li233  1  0.56326332  0.12307928  0.93673668  1
  Li  Li234  1  0.56326332  0.87692072  0.06326332  1
  Li  Li235  1  0.43673668  0.87692072  0.93673668  1
  Li  Li236  1  0.12307928  0.43673668  0.06326332  1
  Li  Li237  1  0.12307928  0.56326332  0.93673668  1
  Li  Li238  1  0.87692072  0.43673668  0.93673668  1
  Li  Li239  1  0.87692072  0.56326332  0.06326332  1
  Li  Li240  1  0.97357512  0.25000000  0.25000000  1
  Li  Li241  1  0.02642488  0.75000000  0.25000000  1
  Li  Li242  1  0.25000000  0.97357512  0.25000000  1
  Li  Li243  1  0.25000000  0.02642488  0.75000000  1
  Li  Li244  1  0.25000000  0.25000000  0.97357512  1
  Li  Li245  1  0.75000000  0.25000000  0.02642488  1
  Li  Li246  1  0.25000000  0.97357512  0.75000000  1
  Li  Li247  1  0.75000000  0.02642488  0.75000000  1
  Li  Li248  1  0.97357512  0.25000000  0.75000000  1
  Li  Li249  1  0.02642488  0.25000000  0.25000000  1
  Li  Li250  1  0.25000000  0.25000000  0.02642488  1
  Li  Li251  1  0.25000000  0.75000000  0.97357512  1
  Li  Li252  1  0.97357512  0.75000000  0.75000000  1
  Li  Li253  1  0.02642488  0.25000000  0.75000000  1
  Li  Li254  1  0.25000000  0.47357512  0.75000000  1
  Li  Li255  1  0.25000000  0.52642488  0.25000000  1
  Li  Li256  1  0.25000000  0.75000000  0.47357512  1
  Li  Li257  1  0.75000000  0.75000000  0.52642488  1
  Li  Li258  1  0.25000000  0.47357512  0.25000000  1
  Li  Li259  1  0.75000000  0.52642488  0.25000000  1
  Li  Li260  1  0.97357512  0.75000000  0.25000000  1
  Li  Li261  1  0.02642488  0.75000000  0.75000000  1
  Li  Li262  1  0.25000000  0.75000000  0.52642488  1
  Li  Li263  1  0.25000000  0.25000000  0.47357512  1
  Li  Li264  1  0.47357512  0.25000000  0.75000000  1
  Li  Li265  1  0.52642488  0.75000000  0.75000000  1
  Li  Li266  1  0.75000000  0.97357512  0.75000000  1
  Li  Li267  1  0.75000000  0.02642488  0.25000000  1
  Li  Li268  1  0.75000000  0.25000000  0.47357512  1
  Li  Li269  1  0.25000000  0.25000000  0.52642488  1
  Li  Li270  1  0.75000000  0.97357512  0.25000000  1
  Li  Li271  1  0.25000000  0.02642488  0.25000000  1
  Li  Li272  1  0.47357512  0.25000000  0.25000000  1
  Li  Li273  1  0.52642488  0.25000000  0.75000000  1
  Li  Li274  1  0.75000000  0.25000000  0.52642488  1
  Li  Li275  1  0.75000000  0.75000000  0.47357512  1
  Li  Li276  1  0.47357512  0.75000000  0.25000000  1
  Li  Li277  1  0.52642488  0.25000000  0.25000000  1
  Li  Li278  1  0.75000000  0.47357512  0.25000000  1
  Li  Li279  1  0.75000000  0.52642488  0.75000000  1
  Li  Li280  1  0.75000000  0.75000000  0.97357512  1
  Li  Li281  1  0.25000000  0.75000000  0.02642488  1
  Li  Li282  1  0.75000000  0.47357512  0.75000000  1
  Li  Li283  1  0.25000000  0.52642488  0.75000000  1
  Li  Li284  1  0.47357512  0.75000000  0.75000000  1
  Li  Li285  1  0.52642488  0.75000000  0.25000000  1
  Li  Li286  1  0.75000000  0.75000000  0.02642488  1
  Li  Li287  1  0.75000000  0.25000000  0.97357512  1
  O  O288  1  0.00000000  0.00000000  0.00000000  1
  O  O289  1  0.00000000  0.50000000  0.50000000  1
  O  O290  1  0.50000000  0.00000000  0.50000000  1
  O  O291  1  0.50000000  0.50000000  0.00000000  1
  O  O292  1  0.30138876  0.06545611  0.61052191  1
  O  O293  1  -0.30138876  -0.06545611  0.61052191  1
  O  O294  1  -0.30138876  0.06545611  -0.61052191  1
  O  O295  1  0.30138876  -0.06545611  -0.61052191  1
  O  O296  1  0.61052191  0.30138876  0.06545611  1
  O  O297  1  0.61052191  -0.30138876  -0.06545611  1
  O  O298  1  -0.61052191  -0.30138876  0.06545611  1
  O  O299  1  -0.61052191  0.30138876  -0.06545611  1
  O  O300  1  0.06545611  0.61052191  0.30138876  1
  O  O301  1  -0.06545611  0.61052191  -0.30138876  1
  O  O302  1  0.06545611  -0.61052191  -0.30138876  1
  O  O303  1  -0.06545611  -0.61052191  0.30138876  1
  O  O304  1  0.06545611  0.30138876  -0.61052191  1
  O  O305  1  -0.06545611  -0.30138876  -0.61052191  1
  O  O306  1  0.06545611  -0.30138876  0.61052191  1
  O  O307  1  -0.06545611  0.30138876  0.61052191  1
  O  O308  1  0.30138876  0.61052191  -0.06545611  1
  O  O309  1  -0.30138876  0.61052191  0.06545611  1
  O  O310  1  -0.30138876  -0.61052191  -0.06545611  1
  O  O311  1  0.30138876  -0.61052191  0.06545611  1
  O  O312  1  0.61052191  0.06545611  -0.30138876  1
  O  O313  1  0.61052191  -0.06545611  0.30138876  1
  O  O314  1  -0.61052191  0.06545611  0.30138876  1
  O  O315  1  -0.61052191  -0.06545611  -0.30138876  1
  O  O316  1  -0.30138876  -0.06545611  -0.61052191  1
  O  O317  1  0.30138876  0.06545611  -0.61052191  1
  O  O318  1  0.30138876  -0.06545611  0.61052191  1
  O  O319  1  -0.30138876  0.06545611  0.61052191  1
  O  O320  1  -0.61052191  -0.30138876  -0.06545611  1
  O  O321  1  -0.61052191  0.30138876  0.06545611  1
  O  O322  1  0.61052191  0.30138876  -0.06545611  1
  O  O323  1  0.61052191  -0.30138876  0.06545611  1
  O  O324  1  -0.06545611  -0.61052191  -0.30138876  1
  O  O325  1  0.06545611  -0.61052191  0.30138876  1
  O  O326  1  -0.06545611  0.61052191  0.30138876  1
  O  O327  1  0.06545611  0.61052191  -0.30138876  1
  O  O328  1  -0.06545611  -0.30138876  0.61052191  1
  O  O329  1  0.06545611  0.30138876  0.61052191  1
  O  O330  1  -0.06545611  0.30138876  -0.61052191  1
  O  O331  1  0.06545611  -0.30138876  -0.61052191  1
  O  O332  1  -0.30138876  -0.61052191  0.06545611  1
  O  O333  1  0.30138876  -0.61052191  -0.06545611  1
  O  O334  1  0.30138876  0.61052191  0.06545611  1
  O  O335  1  -0.30138876  0.61052191  -0.06545611  1
  O  O336  1  -0.61052191  -0.06545611  0.30138876  1
  O  O337  1  -0.61052191  0.06545611  -0.30138876  1
  O  O338  1  0.61052191  -0.06545611  -0.30138876  1
  O  O339  1  0.61052191  0.06545611  0.30138876  1
  O  O340  1  0.30138876  0.56545611  1.11052191  1
  O  O341  1  -0.30138876  0.43454389  1.11052191  1
  O  O342  1  -0.30138876  0.56545611  -0.11052191  1
  O  O343  1  0.30138876  0.43454389  -0.11052191  1
  O  O344  1  0.61052191  0.80138876  0.56545611  1
  O  O345  1  0.61052191  0.19861124  0.43454389  1
  O  O346  1  -0.61052191  0.19861124  0.56545611  1
  O  O347  1  -0.61052191  0.80138876  0.43454389  1
  O  O348  1  0.06545611  1.11052191  0.80138876  1
  O  O349  1  -0.06545611  1.11052191  0.19861124  1
  O  O350  1  0.06545611  -0.11052191  0.19861124  1
  O  O351  1  -0.06545611  -0.11052191  0.80138876  1
  O  O352  1  0.06545611  0.80138876  -0.11052191  1
  O  O353  1  -0.06545611  0.19861124  -0.11052191  1
  O  O354  1  0.06545611  0.19861124  1.11052191  1
  O  O355  1  -0.06545611  0.80138876  1.11052191  1
  O  O356  1  0.30138876  1.11052191  0.43454389  1
  O  O357  1  -0.30138876  1.11052191  0.56545611  1
  O  O358  1  -0.30138876  -0.11052191  0.43454389  1
  O  O359  1  0.30138876  -0.11052191  0.56545611  1
  O  O360  1  0.61052191  0.56545611  0.19861124  1
  O  O361  1  0.61052191  0.43454389  0.80138876  1
  O  O362  1  -0.61052191  0.56545611  0.80138876  1
  O  O363  1  -0.61052191  0.43454389  0.19861124  1
  O  O364  1  -0.30138876  0.43454389  -0.11052191  1
  O  O365  1  0.30138876  0.56545611  -0.11052191  1
  O  O366  1  0.30138876  0.43454389  1.11052191  1
  O  O367  1  -0.30138876  0.56545611  1.11052191  1
  O  O368  1  -0.61052191  0.19861124  0.43454389  1
  O  O369  1  -0.61052191  0.80138876  0.56545611  1
  O  O370  1  0.61052191  0.80138876  0.43454389  1
  O  O371  1  0.61052191  0.19861124  0.56545611  1
  O  O372  1  -0.06545611  -0.11052191  0.19861124  1
  O  O373  1  0.06545611  -0.11052191  0.80138876  1
  O  O374  1  -0.06545611  1.11052191  0.80138876  1
  O  O375  1  0.06545611  1.11052191  0.19861124  1
  O  O376  1  -0.06545611  0.19861124  1.11052191  1
  O  O377  1  0.06545611  0.80138876  1.11052191  1
  O  O378  1  -0.06545611  0.80138876  -0.11052191  1
  O  O379  1  0.06545611  0.19861124  -0.11052191  1
  O  O380  1  -0.30138876  -0.11052191  0.56545611  1
  O  O381  1  0.30138876  -0.11052191  0.43454389  1
  O  O382  1  0.30138876  1.11052191  0.56545611  1
  O  O383  1  -0.30138876  1.11052191  0.43454389  1
  O  O384  1  -0.61052191  0.43454389  0.80138876  1
  O  O385  1  -0.61052191  0.56545611  0.19861124  1
  O  O386  1  0.61052191  0.43454389  0.19861124  1
  O  O387  1  0.61052191  0.56545611  0.80138876  1
  O  O388  1  0.80138876  0.06545611  1.11052191  1
  O  O389  1  0.19861124  -0.06545611  1.11052191  1
  O  O390  1  0.19861124  0.06545611  -0.11052191  1
  O  O391  1  0.80138876  -0.06545611  -0.11052191  1
  O  O392  1  1.11052191  0.30138876  0.56545611  1
  O  O393  1  1.11052191  -0.30138876  0.43454389  1
  O  O394  1  -0.11052191  -0.30138876  0.56545611  1
  O  O395  1  -0.11052191  0.30138876  0.43454389  1
  O  O396  1  0.56545611  0.61052191  0.80138876  1
  O  O397  1  0.43454389  0.61052191  0.19861124  1
  O  O398  1  0.56545611  -0.61052191  0.19861124  1
  O  O399  1  0.43454389  -0.61052191  0.80138876  1
  O  O400  1  0.56545611  0.30138876  -0.11052191  1
  O  O401  1  0.43454389  -0.30138876  -0.11052191  1
  O  O402  1  0.56545611  -0.30138876  1.11052191  1
  O  O403  1  0.43454389  0.30138876  1.11052191  1
  O  O404  1  0.80138876  0.61052191  0.43454389  1
  O  O405  1  0.19861124  0.61052191  0.56545611  1
  O  O406  1  0.19861124  -0.61052191  0.43454389  1
  O  O407  1  0.80138876  -0.61052191  0.56545611  1
  O  O408  1  1.11052191  0.06545611  0.19861124  1
  O  O409  1  1.11052191  -0.06545611  0.80138876  1
  O  O410  1  -0.11052191  0.06545611  0.80138876  1
  O  O411  1  -0.11052191  -0.06545611  0.19861124  1
  O  O412  1  0.19861124  -0.06545611  -0.11052191  1
  O  O413  1  0.80138876  0.06545611  -0.11052191  1
  O  O414  1  0.80138876  -0.06545611  1.11052191  1
  O  O415  1  0.19861124  0.06545611  1.11052191  1
  O  O416  1  -0.11052191  -0.30138876  0.43454389  1
  O  O417  1  -0.11052191  0.30138876  0.56545611  1
  O  O418  1  1.11052191  0.30138876  0.43454389  1
  O  O419  1  1.11052191  -0.30138876  0.56545611  1
  O  O420  1  0.43454389  -0.61052191  0.19861124  1
  O  O421  1  0.56545611  -0.61052191  0.80138876  1
  O  O422  1  0.43454389  0.61052191  0.80138876  1
  O  O423  1  0.56545611  0.61052191  0.19861124  1
  O  O424  1  0.43454389  -0.30138876  1.11052191  1
  O  O425  1  0.56545611  0.30138876  1.11052191  1
  O  O426  1  0.43454389  0.30138876  -0.11052191  1
  O  O427  1  0.56545611  -0.30138876  -0.11052191  1
  O  O428  1  0.19861124  -0.61052191  0.56545611  1
  O  O429  1  0.80138876  -0.61052191  0.43454389  1
  O  O430  1  0.80138876  0.61052191  0.56545611  1
  O  O431  1  0.19861124  0.61052191  0.43454389  1
  O  O432  1  -0.11052191  -0.06545611  0.80138876  1
  O  O433  1  -0.11052191  0.06545611  0.19861124  1
  O  O434  1  1.11052191  -0.06545611  0.19861124  1
  O  O435  1  1.11052191  0.06545611  0.80138876  1
  O  O436  1  0.80138876  0.56545611  0.61052191  1
  O  O437  1  0.19861124  0.43454389  0.61052191  1
  O  O438  1  0.19861124  0.56545611  -0.61052191  1
  O  O439  1  0.80138876  0.43454389  -0.61052191  1
  O  O440  1  1.11052191  0.80138876  0.06545611  1
  O  O441  1  1.11052191  0.19861124  -0.06545611  1
  O  O442  1  -0.11052191  0.19861124  0.06545611  1
  O  O443  1  -0.11052191  0.80138876  -0.06545611  1
  O  O444  1  0.56545611  1.11052191  0.30138876  1
  O  O445  1  0.43454389  1.11052191  -0.30138876  1
  O  O446  1  0.56545611  -0.11052191  -0.30138876  1
  O  O447  1  0.43454389  -0.11052191  0.30138876  1
  O  O448  1  0.56545611  0.80138876  -0.61052191  1
  O  O449  1  0.43454389  0.19861124  -0.61052191  1
  O  O450  1  0.56545611  0.19861124  0.61052191  1
  O  O451  1  0.43454389  0.80138876  0.61052191  1
  O  O452  1  0.80138876  1.11052191  -0.06545611  1
  O  O453  1  0.19861124  1.11052191  0.06545611  1
  O  O454  1  0.19861124  -0.11052191  -0.06545611  1
  O  O455  1  0.80138876  -0.11052191  0.06545611  1
  O  O456  1  1.11052191  0.56545611  -0.30138876  1
  O  O457  1  1.11052191  0.43454389  0.30138876  1
  O  O458  1  -0.11052191  0.56545611  0.30138876  1
  O  O459  1  -0.11052191  0.43454389  -0.30138876  1
  O  O460  1  0.19861124  0.43454389  -0.61052191  1
  O  O461  1  0.80138876  0.56545611  -0.61052191  1
  O  O462  1  0.80138876  0.43454389  0.61052191  1
  O  O463  1  0.19861124  0.56545611  0.61052191  1
  O  O464  1  -0.11052191  0.19861124  -0.06545611  1
  O  O465  1  -0.11052191  0.80138876  0.06545611  1
  O  O466  1  1.11052191  0.80138876  -0.06545611  1
  O  O467  1  1.11052191  0.19861124  0.06545611  1
  O  O468  1  0.43454389  -0.11052191  -0.30138876  1
  O  O469  1  0.56545611  -0.11052191  0.30138876  1
  O  O470  1  0.43454389  1.11052191  0.30138876  1
  O  O471  1  0.56545611  1.11052191  -0.30138876  1
  O  O472  1  0.43454389  0.19861124  0.61052191  1
  O  O473  1  0.56545611  0.80138876  0.61052191  1
  O  O474  1  0.43454389  0.80138876  -0.61052191  1
  O  O475  1  0.56545611  0.19861124  -0.61052191  1
  O  O476  1  0.19861124  -0.11052191  0.06545611  1
  O  O477  1  0.80138876  -0.11052191  -0.06545611  1
  O  O478  1  0.80138876  1.11052191  0.06545611  1
  O  O479  1  0.19861124  1.11052191  -0.06545611  1
  O  O480  1  -0.11052191  0.43454389  0.30138876  1
  O  O481  1  -0.11052191  0.56545611  -0.30138876  1
  O  O482  1  1.11052191  0.43454389  -0.30138876  1
  O  O483  1  1.11052191  0.56545611  0.30138876  1
  O  O484  1  0.00000000  0.52097710  0.88866190  1
  O  O485  1  0.00000000  0.47902290  0.88866190  1
  O  O486  1  0.00000000  0.52097710  0.11133810  1
  O  O487  1  0.00000000  0.47902290  0.11133810  1
  O  O488  1  0.88866190  0.00000000  0.52097710  1
  O  O489  1  0.88866190  0.00000000  0.47902290  1
  O  O490  1  0.11133810  0.00000000  0.52097710  1
  O  O491  1  0.11133810  0.00000000  0.47902290  1
  O  O492  1  0.52097710  0.88866190  -0.00000000  1
  O  O493  1  0.47902290  0.88866190  0.00000000  1
  O  O494  1  0.52097710  0.11133810  -0.00000000  1
  O  O495  1  0.47902290  0.11133810  -0.00000000  1
  O  O496  1  0.52097710  -0.00000000  0.11133810  1
  O  O497  1  0.47902290  -0.00000000  0.11133810  1
  O  O498  1  0.52097710  -0.00000000  0.88866190  1
  O  O499  1  0.47902290  -0.00000000  0.88866190  1
  O  O500  1  0.00000000  0.88866190  0.47902290  1
  O  O501  1  0.00000000  0.88866190  0.52097710  1
  O  O502  1  0.00000000  0.11133810  0.47902290  1
  O  O503  1  0.00000000  0.11133810  0.52097710  1
  O  O504  1  0.88866190  0.52097710  -0.00000000  1
  O  O505  1  0.88866190  0.47902290  0.00000000  1
  O  O506  1  0.11133810  0.52097710  -0.00000000  1
  O  O507  1  0.11133810  0.47902290  0.00000000  1
  O  O508  1  0.00000000  0.02097710  0.38866190  1
  O  O509  1  0.00000000  0.97902290  0.38866190  1
  O  O510  1  0.00000000  0.02097710  0.61133810  1
  O  O511  1  0.00000000  0.97902290  0.61133810  1
  O  O512  1  0.88866190  0.50000000  0.02097710  1
  O  O513  1  0.88866190  0.50000000  0.97902290  1
  O  O514  1  0.11133810  0.50000000  0.02097710  1
  O  O515  1  0.11133810  0.50000000  0.97902290  1
  O  O516  1  0.52097710  0.38866190  0.50000000  1
  O  O517  1  0.47902290  0.38866190  0.50000000  1
  O  O518  1  0.52097710  0.61133810  0.50000000  1
  O  O519  1  0.47902290  0.61133810  0.50000000  1
  O  O520  1  0.52097710  0.50000000  0.61133810  1
  O  O521  1  0.47902290  0.50000000  0.61133810  1
  O  O522  1  0.52097710  0.50000000  0.38866190  1
  O  O523  1  0.47902290  0.50000000  0.38866190  1
  O  O524  1  0.00000000  0.38866190  0.97902290  1
  O  O525  1  0.00000000  0.38866190  0.02097710  1
  O  O526  1  0.00000000  0.61133810  0.97902290  1
  O  O527  1  0.00000000  0.61133810  0.02097710  1
  O  O528  1  0.88866190  0.02097710  0.50000000  1
  O  O529  1  0.88866190  0.97902290  0.50000000  1
  O  O530  1  0.11133810  0.02097710  0.50000000  1
  O  O531  1  0.11133810  0.97902290  0.50000000  1
  O  O532  1  0.50000000  0.52097710  0.38866190  1
  O  O533  1  0.50000000  0.47902290  0.38866190  1
  O  O534  1  0.50000000  0.52097710  0.61133810  1
  O  O535  1  0.50000000  0.47902290  0.61133810  1
  O  O536  1  0.38866190  0.00000000  0.02097710  1
  O  O537  1  0.38866190  0.00000000  0.97902290  1
  O  O538  1  0.61133810  0.00000000  0.02097710  1
  O  O539  1  0.61133810  0.00000000  0.97902290  1
  O  O540  1  0.02097710  0.88866190  0.50000000  1
  O  O541  1  0.97902290  0.88866190  0.50000000  1
  O  O542  1  0.02097710  0.11133810  0.50000000  1
  O  O543  1  0.97902290  0.11133810  0.50000000  1
  O  O544  1  0.02097710  0.00000000  0.61133810  1
  O  O545  1  0.97902290  0.00000000  0.61133810  1
  O  O546  1  0.02097710  0.00000000  0.38866190  1
  O  O547  1  0.97902290  0.00000000  0.38866190  1
  O  O548  1  0.50000000  0.88866190  0.97902290  1
  O  O549  1  0.50000000  0.88866190  0.02097710  1
  O  O550  1  0.50000000  0.11133810  0.97902290  1
  O  O551  1  0.50000000  0.11133810  0.02097710  1
  O  O552  1  0.38866190  0.52097710  0.50000000  1
  O  O553  1  0.38866190  0.47902290  0.50000000  1
  O  O554  1  0.61133810  0.52097710  0.50000000  1
  O  O555  1  0.61133810  0.47902290  0.50000000  1
  O  O556  1  0.50000000  0.02097710  0.88866190  1
  O  O557  1  0.50000000  0.97902290  0.88866190  1
  O  O558  1  0.50000000  0.02097710  0.11133810  1
  O  O559  1  0.50000000  0.97902290  0.11133810  1
  O  O560  1  0.38866190  0.50000000  0.52097710  1
  O  O561  1  0.38866190  0.50000000  0.47902290  1
  O  O562  1  0.61133810  0.50000000  0.52097710  1
  O  O563  1  0.61133810  0.50000000  0.47902290  1
  O  O564  1  0.02097710  0.38866190  0.00000000  1
  O  O565  1  0.97902290  0.38866190  0.00000000  1
  O  O566  1  0.02097710  0.61133810  -0.00000000  1
  O  O567  1  0.97902290  0.61133810  0.00000000  1
  O  O568  1  0.02097710  0.50000000  0.11133810  1
  O  O569  1  0.97902290  0.50000000  0.11133810  1
  O  O570  1  0.02097710  0.50000000  0.88866190  1
  O  O571  1  0.97902290  0.50000000  0.88866190  1
  O  O572  1  0.50000000  0.38866190  0.47902290  1
  O  O573  1  0.50000000  0.38866190  0.52097710  1
  O  O574  1  0.50000000  0.61133810  0.47902290  1
  O  O575  1  0.50000000  0.61133810  0.52097710  1
  O  O576  1  0.38866190  0.02097710  0.00000000  1
  O  O577  1  0.38866190  0.97902290  0.00000000  1
  O  O578  1  0.61133810  0.02097710  -0.00000000  1
  O  O579  1  0.61133810  0.97902290  0.00000000  1
  O  O580  1  0.00000000  0.09275431  0.09275431  1
  O  O581  1  0.00000000  0.90724569  0.09275431  1
  O  O582  1  0.00000000  0.09275431  0.90724569  1
  O  O583  1  0.00000000  0.90724569  0.90724569  1
  O  O584  1  0.09275431  0.00000000  0.09275431  1
  O  O585  1  0.09275431  0.00000000  0.90724569  1
  O  O586  1  0.90724569  0.00000000  0.09275431  1
  O  O587  1  0.90724569  0.00000000  0.90724569  1
  O  O588  1  0.09275431  0.09275431  0.00000000  1
  O  O589  1  0.90724569  0.09275431  0.00000000  1
  O  O590  1  0.09275431  0.90724569  0.00000000  1
  O  O591  1  0.90724569  0.90724569  0.00000000  1
  O  O592  1  0.00000000  0.59275431  0.59275431  1
  O  O593  1  0.00000000  0.40724569  0.59275431  1
  O  O594  1  0.00000000  0.59275431  0.40724569  1
  O  O595  1  0.00000000  0.40724569  0.40724569  1
  O  O596  1  0.09275431  0.50000000  0.59275431  1
  O  O597  1  0.09275431  0.50000000  0.40724569  1
  O  O598  1  0.90724569  0.50000000  0.59275431  1
  O  O599  1  0.90724569  0.50000000  0.40724569  1
  O  O600  1  0.09275431  0.59275431  0.50000000  1
  O  O601  1  0.90724569  0.59275431  0.50000000  1
  O  O602  1  0.09275431  0.40724569  0.50000000  1
  O  O603  1  0.90724569  0.40724569  0.50000000  1
  O  O604  1  0.50000000  0.09275431  0.59275431  1
  O  O605  1  0.50000000  0.90724569  0.59275431  1
  O  O606  1  0.50000000  0.09275431  0.40724569  1
  O  O607  1  0.50000000  0.90724569  0.40724569  1
  O  O608  1  0.59275431  0.00000000  0.59275431  1
  O  O609  1  0.59275431  0.00000000  0.40724569  1
  O  O610  1  0.40724569  0.00000000  0.59275431  1
  O  O611  1  0.40724569  0.00000000  0.40724569  1
  O  O612  1  0.59275431  0.09275431  0.50000000  1
  O  O613  1  0.40724569  0.09275431  0.50000000  1
  O  O614  1  0.59275431  0.90724569  0.50000000  1
  O  O615  1  0.40724569  0.90724569  0.50000000  1
  O  O616  1  0.50000000  0.59275431  0.09275431  1
  O  O617  1  0.50000000  0.40724569  0.09275431  1
  O  O618  1  0.50000000  0.59275431  0.90724569  1
  O  O619  1  0.50000000  0.40724569  0.90724569  1
  O  O620  1  0.59275431  0.50000000  0.09275431  1
  O  O621  1  0.59275431  0.50000000  0.90724569  1
  O  O622  1  0.40724569  0.50000000  0.09275431  1
  O  O623  1  0.40724569  0.50000000  0.90724569  1
  O  O624  1  0.59275431  0.59275431  0.00000000  1
  O  O625  1  0.40724569  0.59275431  0.00000000  1
  O  O626  1  0.59275431  0.40724569  0.00000000  1
  O  O627  1  0.40724569  0.40724569  0.00000000  1
  O  O628  1  0.17757430  0.60603250  0.52386301  1
  O  O629  1  0.82242570  0.39396750  0.52386301  1
  O  O630  1  0.82242570  0.60603250  0.47613699  1
  O  O631  1  0.17757430  0.39396750  0.47613699  1
  O  O632  1  0.52386301  0.17757430  0.60603250  1
  O  O633  1  0.52386301  0.82242570  0.39396750  1
  O  O634  1  0.47613699  0.82242570  0.60603250  1
  O  O635  1  0.47613699  0.17757430  0.39396750  1
  O  O636  1  0.60603250  0.52386301  0.17757430  1
  O  O637  1  0.39396750  0.52386301  0.82242570  1
  O  O638  1  0.60603250  0.47613699  0.82242570  1
  O  O639  1  0.39396750  0.47613699  0.17757430  1
  O  O640  1  0.60603250  0.17757430  0.47613699  1
  O  O641  1  0.39396750  0.82242570  0.47613699  1
  O  O642  1  0.60603250  0.82242570  0.52386301  1
  O  O643  1  0.39396750  0.17757430  0.52386301  1
  O  O644  1  0.17757430  0.52386301  0.39396750  1
  O  O645  1  0.82242570  0.52386301  0.60603250  1
  O  O646  1  0.82242570  0.47613699  0.39396750  1
  O  O647  1  0.17757430  0.47613699  0.60603250  1
  O  O648  1  0.52386301  0.60603250  0.82242570  1
  O  O649  1  0.52386301  0.39396750  0.17757430  1
  O  O650  1  0.47613699  0.60603250  0.17757430  1
  O  O651  1  0.47613699  0.39396750  0.82242570  1
  O  O652  1  0.82242570  0.39396750  0.47613699  1
  O  O653  1  0.17757430  0.60603250  0.47613699  1
  O  O654  1  0.17757430  0.39396750  0.52386301  1
  O  O655  1  0.82242570  0.60603250  0.52386301  1
  O  O656  1  0.47613699  0.82242570  0.39396750  1
  O  O657  1  0.47613699  0.17757430  0.60603250  1
  O  O658  1  0.52386301  0.17757430  0.39396750  1
  O  O659  1  0.52386301  0.82242570  0.60603250  1
  O  O660  1  0.39396750  0.47613699  0.82242570  1
  O  O661  1  0.60603250  0.47613699  0.17757430  1
  O  O662  1  0.39396750  0.52386301  0.17757430  1
  O  O663  1  0.60603250  0.52386301  0.82242570  1
  O  O664  1  0.39396750  0.82242570  0.52386301  1
  O  O665  1  0.60603250  0.17757430  0.52386301  1
  O  O666  1  0.39396750  0.17757430  0.47613699  1
  O  O667  1  0.60603250  0.82242570  0.47613699  1
  O  O668  1  0.82242570  0.47613699  0.60603250  1
  O  O669  1  0.17757430  0.47613699  0.39396750  1
  O  O670  1  0.17757430  0.52386301  0.60603250  1
  O  O671  1  0.82242570  0.52386301  0.39396750  1
  O  O672  1  0.47613699  0.39396750  0.17757430  1
  O  O673  1  0.47613699  0.60603250  0.82242570  1
  O  O674  1  0.52386301  0.39396750  0.82242570  1
  O  O675  1  0.52386301  0.60603250  0.17757430  1
  O  O676  1  0.17757430  0.10603250  0.02386301  1
  O  O677  1  0.82242570  0.89396750  0.02386301  1
  O  O678  1  0.82242570  0.10603250  0.97613699  1
  O  O679  1  0.17757430  0.89396750  0.97613699  1
  O  O680  1  0.52386301  0.67757430  0.10603250  1
  O  O681  1  0.52386301  0.32242570  0.89396750  1
  O  O682  1  0.47613699  0.32242570  0.10603250  1
  O  O683  1  0.47613699  0.67757430  0.89396750  1
  O  O684  1  0.60603250  0.02386301  0.67757430  1
  O  O685  1  0.39396750  0.02386301  0.32242570  1
  O  O686  1  0.60603250  0.97613699  0.32242570  1
  O  O687  1  0.39396750  0.97613699  0.67757430  1
  O  O688  1  0.60603250  0.67757430  0.97613699  1
  O  O689  1  0.39396750  0.32242570  0.97613699  1
  O  O690  1  0.60603250  0.32242570  0.02386301  1
  O  O691  1  0.39396750  0.67757430  0.02386301  1
  O  O692  1  0.17757430  0.02386301  0.89396750  1
  O  O693  1  0.82242570  0.02386301  0.10603250  1
  O  O694  1  0.82242570  0.97613699  0.89396750  1
  O  O695  1  0.17757430  0.97613699  0.10603250  1
  O  O696  1  0.52386301  0.10603250  0.32242570  1
  O  O697  1  0.52386301  0.89396750  0.67757430  1
  O  O698  1  0.47613699  0.10603250  0.67757430  1
  O  O699  1  0.47613699  0.89396750  0.32242570  1
  O  O700  1  0.82242570  0.89396750  0.97613699  1
  O  O701  1  0.17757430  0.10603250  0.97613699  1
  O  O702  1  0.17757430  0.89396750  0.02386301  1
  O  O703  1  0.82242570  0.10603250  0.02386301  1
  O  O704  1  0.47613699  0.32242570  0.89396750  1
  O  O705  1  0.47613699  0.67757430  0.10603250  1
  O  O706  1  0.52386301  0.67757430  0.89396750  1
  O  O707  1  0.52386301  0.32242570  0.10603250  1
  O  O708  1  0.39396750  0.97613699  0.32242570  1
  O  O709  1  0.60603250  0.97613699  0.67757430  1
  O  O710  1  0.39396750  0.02386301  0.67757430  1
  O  O711  1  0.60603250  0.02386301  0.32242570  1
  O  O712  1  0.39396750  0.32242570  0.02386301  1
  O  O713  1  0.60603250  0.67757430  0.02386301  1
  O  O714  1  0.39396750  0.67757430  0.97613699  1
  O  O715  1  0.60603250  0.32242570  0.97613699  1
  O  O716  1  0.82242570  0.97613699  0.10603250  1
  O  O717  1  0.17757430  0.97613699  0.89396750  1
  O  O718  1  0.17757430  0.02386301  0.10603250  1
  O  O719  1  0.82242570  0.02386301  0.89396750  1
  O  O720  1  0.47613699  0.89396750  0.67757430  1
  O  O721  1  0.47613699  0.10603250  0.32242570  1
  O  O722  1  0.52386301  0.89396750  0.32242570  1
  O  O723  1  0.52386301  0.10603250  0.67757430  1
  O  O724  1  0.67757430  0.60603250  0.02386301  1
  O  O725  1  0.32242570  0.39396750  0.02386301  1
  O  O726  1  0.32242570  0.60603250  0.97613699  1
  O  O727  1  0.67757430  0.39396750  0.97613699  1
  O  O728  1  0.02386301  0.17757430  0.10603250  1
  O  O729  1  0.02386301  0.82242570  0.89396750  1
  O  O730  1  0.97613699  0.82242570  0.10603250  1
  O  O731  1  0.97613699  0.17757430  0.89396750  1
  O  O732  1  0.10603250  0.52386301  0.67757430  1
  O  O733  1  0.89396750  0.52386301  0.32242570  1
  O  O734  1  0.10603250  0.47613699  0.32242570  1
  O  O735  1  0.89396750  0.47613699  0.67757430  1
  O  O736  1  0.10603250  0.17757430  0.97613699  1
  O  O737  1  0.89396750  0.82242570  0.97613699  1
  O  O738  1  0.10603250  0.82242570  0.02386301  1
  O  O739  1  0.89396750  0.17757430  0.02386301  1
  O  O740  1  0.67757430  0.52386301  0.89396750  1
  O  O741  1  0.32242570  0.52386301  0.10603250  1
  O  O742  1  0.32242570  0.47613699  0.89396750  1
  O  O743  1  0.67757430  0.47613699  0.10603250  1
  O  O744  1  0.02386301  0.60603250  0.32242570  1
  O  O745  1  0.02386301  0.39396750  0.67757430  1
  O  O746  1  0.97613699  0.60603250  0.67757430  1
  O  O747  1  0.97613699  0.39396750  0.32242570  1
  O  O748  1  0.32242570  0.39396750  0.97613699  1
  O  O749  1  0.67757430  0.60603250  0.97613699  1
  O  O750  1  0.67757430  0.39396750  0.02386301  1
  O  O751  1  0.32242570  0.60603250  0.02386301  1
  O  O752  1  0.97613699  0.82242570  0.89396750  1
  O  O753  1  0.97613699  0.17757430  0.10603250  1
  O  O754  1  0.02386301  0.17757430  0.89396750  1
  O  O755  1  0.02386301  0.82242570  0.10603250  1
  O  O756  1  0.89396750  0.47613699  0.32242570  1
  O  O757  1  0.10603250  0.47613699  0.67757430  1
  O  O758  1  0.89396750  0.52386301  0.67757430  1
  O  O759  1  0.10603250  0.52386301  0.32242570  1
  O  O760  1  0.89396750  0.82242570  0.02386301  1
  O  O761  1  0.10603250  0.17757430  0.02386301  1
  O  O762  1  0.89396750  0.17757430  0.97613699  1
  O  O763  1  0.10603250  0.82242570  0.97613699  1
  O  O764  1  0.32242570  0.47613699  0.10603250  1
  O  O765  1  0.67757430  0.47613699  0.89396750  1
  O  O766  1  0.67757430  0.52386301  0.10603250  1
  O  O767  1  0.32242570  0.52386301  0.89396750  1
  O  O768  1  0.97613699  0.39396750  0.67757430  1
  O  O769  1  0.97613699  0.60603250  0.32242570  1
  O  O770  1  0.02386301  0.39396750  0.32242570  1
  O  O771  1  0.02386301  0.60603250  0.67757430  1
  O  O772  1  0.67757430  0.10603250  0.52386301  1
  O  O773  1  0.32242570  0.89396750  0.52386301  1
  O  O774  1  0.32242570  0.10603250  0.47613699  1
  O  O775  1  0.67757430  0.89396750  0.47613699  1
  O  O776  1  0.02386301  0.67757430  0.60603250  1
  O  O777  1  0.02386301  0.32242570  0.39396750  1
  O  O778  1  0.97613699  0.32242570  0.60603250  1
  O  O779  1  0.97613699  0.67757430  0.39396750  1
  O  O780  1  0.10603250  0.02386301  0.17757430  1
  O  O781  1  0.89396750  0.02386301  0.82242570  1
  O  O782  1  0.10603250  0.97613699  0.82242570  1
  O  O783  1  0.89396750  0.97613699  0.17757430  1
  O  O784  1  0.10603250  0.67757430  0.47613699  1
  O  O785  1  0.89396750  0.32242570  0.47613699  1
  O  O786  1  0.10603250  0.32242570  0.52386301  1
  O  O787  1  0.89396750  0.67757430  0.52386301  1
  O  O788  1  0.67757430  0.02386301  0.39396750  1
  O  O789  1  0.32242570  0.02386301  0.60603250  1
  O  O790  1  0.32242570  0.97613699  0.39396750  1
  O  O791  1  0.67757430  0.97613699  0.60603250  1
  O  O792  1  0.02386301  0.10603250  0.82242570  1
  O  O793  1  0.02386301  0.89396750  0.17757430  1
  O  O794  1  0.97613699  0.10603250  0.17757430  1
  O  O795  1  0.97613699  0.89396750  0.82242570  1
  O  O796  1  0.32242570  0.89396750  0.47613699  1
  O  O797  1  0.67757430  0.10603250  0.47613699  1
  O  O798  1  0.67757430  0.89396750  0.52386301  1
  O  O799  1  0.32242570  0.10603250  0.52386301  1
  O  O800  1  0.97613699  0.32242570  0.39396750  1
  O  O801  1  0.97613699  0.67757430  0.60603250  1
  O  O802  1  0.02386301  0.67757430  0.39396750  1
  O  O803  1  0.02386301  0.32242570  0.60603250  1
  O  O804  1  0.89396750  0.97613699  0.82242570  1
  O  O805  1  0.10603250  0.97613699  0.17757430  1
  O  O806  1  0.89396750  0.02386301  0.17757430  1
  O  O807  1  0.10603250  0.02386301  0.82242570  1
  O  O808  1  0.89396750  0.32242570  0.52386301  1
  O  O809  1  0.10603250  0.67757430  0.52386301  1
  O  O810  1  0.89396750  0.67757430  0.47613699  1
  O  O811  1  0.10603250  0.32242570  0.47613699  1
  O  O812  1  0.32242570  0.97613699  0.60603250  1
  O  O813  1  0.67757430  0.97613699  0.39396750  1
  O  O814  1  0.67757430  0.02386301  0.60603250  1
  O  O815  1  0.32242570  0.02386301  0.39396750  1
  O  O816  1  0.97613699  0.89396750  0.17757430  1
  O  O817  1  0.97613699  0.10603250  0.82242570  1
  O  O818  1  0.02386301  0.89396750  0.82242570  1
  O  O819  1  0.02386301  0.10603250  0.17757430  1
  O  O820  1  0.50000000  0.50000000  0.50000000  1
  O  O821  1  0.50000000  0.00000000  0.00000000  1
  O  O822  1  0.00000000  0.50000000  0.00000000  1
  O  O823  1  0.00000000  0.00000000  0.50000000  1
  O  O824  1  0.21961606  0.21961606  0.21961606  1
  O  O825  1  0.78038394  0.78038394  0.21961606  1
  O  O826  1  0.78038394  0.21961606  0.78038394  1
  O  O827  1  0.21961606  0.78038394  0.78038394  1
  O  O828  1  0.21961606  0.21961606  0.78038394  1
  O  O829  1  0.78038394  0.78038394  0.78038394  1
  O  O830  1  0.21961606  0.78038394  0.21961606  1
  O  O831  1  0.78038394  0.21961606  0.21961606  1
  O  O832  1  0.21961606  0.71961606  0.71961606  1
  O  O833  1  0.78038394  0.28038394  0.71961606  1
  O  O834  1  0.78038394  0.71961606  0.28038394  1
  O  O835  1  0.21961606  0.28038394  0.28038394  1
  O  O836  1  0.21961606  0.71961606  0.28038394  1
  O  O837  1  0.78038394  0.28038394  0.28038394  1
  O  O838  1  0.21961606  0.28038394  0.71961606  1
  O  O839  1  0.78038394  0.71961606  0.71961606  1
  O  O840  1  0.71961606  0.21961606  0.71961606  1
  O  O841  1  0.28038394  0.78038394  0.71961606  1
  O  O842  1  0.28038394  0.21961606  0.28038394  1
  O  O843  1  0.71961606  0.78038394  0.28038394  1
  O  O844  1  0.71961606  0.21961606  0.28038394  1
  O  O845  1  0.28038394  0.78038394  0.28038394  1
  O  O846  1  0.71961606  0.78038394  0.71961606  1
  O  O847  1  0.28038394  0.21961606  0.71961606  1
  O  O848  1  0.71961606  0.71961606  0.21961606  1
  O  O849  1  0.28038394  0.28038394  0.21961606  1
  O  O850  1  0.28038394  0.71961606  0.78038394  1
  O  O851  1  0.71961606  0.28038394  0.78038394  1
  O  O852  1  0.71961606  0.71961606  0.78038394  1
  O  O853  1  0.28038394  0.28038394  0.78038394  1
  O  O854  1  0.71961606  0.28038394  0.21961606  1
  O  O855  1  0.28038394  0.71961606  0.21961606  1
  O  O856  1  0.25000000  0.25000000  0.25000000  1
  O  O857  1  0.25000000  0.25000000  0.75000000  1
  O  O858  1  0.25000000  0.75000000  0.75000000  1
  O  O859  1  0.25000000  0.75000000  0.25000000  1
  O  O860  1  0.75000000  0.25000000  0.75000000  1
  O  O861  1  0.75000000  0.25000000  0.25000000  1
  O  O862  1  0.75000000  0.75000000  0.25000000  1
  O  O863  1  0.75000000  0.75000000  0.75000000  1
  Sb  Sb864  1  0.66976421  0.66976421  0.66976421  1
  Sb  Sb865  1  0.33023579  0.33023579  0.66976421  1
  Sb  Sb866  1  0.33023579  0.66976421  0.33023579  1
  Sb  Sb867  1  0.66976421  0.33023579  0.33023579  1
  Sb  Sb868  1  0.66976421  0.66976421  0.33023579  1
  Sb  Sb869  1  0.33023579  0.33023579  0.33023579  1
  Sb  Sb870  1  0.66976421  0.33023579  0.66976421  1
  Sb  Sb871  1  0.33023579  0.66976421  0.66976421  1
  Sb  Sb872  1  0.66976421  0.16976421  0.16976421  1
  Sb  Sb873  1  0.33023579  0.83023579  0.16976421  1
  Sb  Sb874  1  0.33023579  0.16976421  0.83023579  1
  Sb  Sb875  1  0.66976421  0.83023579  0.83023579  1
  Sb  Sb876  1  0.66976421  0.16976421  0.83023579  1
  Sb  Sb877  1  0.33023579  0.83023579  0.83023579  1
  Sb  Sb878  1  0.66976421  0.83023579  0.16976421  1
  Sb  Sb879  1  0.33023579  0.16976421  0.16976421  1
  Sb  Sb880  1  0.16976421  0.66976421  0.16976421  1
  Sb  Sb881  1  0.83023579  0.33023579  0.16976421  1
  Sb  Sb882  1  0.83023579  0.66976421  0.83023579  1
  Sb  Sb883  1  0.16976421  0.33023579  0.83023579  1
  Sb  Sb884  1  0.16976421  0.66976421  0.83023579  1
  Sb  Sb885  1  0.83023579  0.33023579  0.83023579  1
  Sb  Sb886  1  0.16976421  0.33023579  0.16976421  1
  Sb  Sb887  1  0.83023579  0.66976421  0.16976421  1
  Sb  Sb888  1  0.16976421  0.16976421  0.66976421  1
  Sb  Sb889  1  0.83023579  0.83023579  0.66976421  1
  Sb  Sb890  1  0.83023579  0.16976421  0.33023579  1
  Sb  Sb891  1  0.16976421  0.83023579  0.33023579  1
  Sb  Sb892  1  0.16976421  0.16976421  0.33023579  1
  Sb  Sb893  1  0.83023579  0.83023579  0.33023579  1
  Sb  Sb894  1  0.16976421  0.83023579  0.66976421  1
  Sb  Sb895  1  0.83023579  0.16976421  0.66976421  1
  Sb  Sb896  1  0.37663262  0.37663262  0.37663262  1
  Sb  Sb897  1  0.62336738  0.62336738  0.37663262  1
  Sb  Sb898  1  0.62336738  0.37663262  0.62336738  1
  Sb  Sb899  1  0.37663262  0.62336738  0.62336738  1
  Sb  Sb900  1  0.37663262  0.37663262  0.62336738  1
  Sb  Sb901  1  0.62336738  0.62336738  0.62336738  1
  Sb  Sb902  1  0.37663262  0.62336738  0.37663262  1
  Sb  Sb903  1  0.62336738  0.37663262  0.37663262  1
  Sb  Sb904  1  0.37663262  0.87663262  0.87663262  1
  Sb  Sb905  1  0.62336738  0.12336738  0.87663262  1
  Sb  Sb906  1  0.62336738  0.87663262  0.12336738  1
  Sb  Sb907  1  0.37663262  0.12336738  0.12336738  1
  Sb  Sb908  1  0.37663262  0.87663262  0.12336738  1
  Sb  Sb909  1  0.62336738  0.12336738  0.12336738  1
  Sb  Sb910  1  0.37663262  0.12336738  0.87663262  1
  Sb  Sb911  1  0.62336738  0.87663262  0.87663262  1
  Sb  Sb912  1  0.87663262  0.37663262  0.87663262  1
  Sb  Sb913  1  0.12336738  0.62336738  0.87663262  1
  Sb  Sb914  1  0.12336738  0.37663262  0.12336738  1
  Sb  Sb915  1  0.87663262  0.62336738  0.12336738  1
  Sb  Sb916  1  0.87663262  0.37663262  0.12336738  1
  Sb  Sb917  1  0.12336738  0.62336738  0.12336738  1
  Sb  Sb918  1  0.87663262  0.62336738  0.87663262  1
  Sb  Sb919  1  0.12336738  0.37663262  0.87663262  1
  Sb  Sb920  1  0.87663262  0.87663262  0.37663262  1
  Sb  Sb921  1  0.12336738  0.12336738  0.37663262  1
  Sb  Sb922  1  0.12336738  0.87663262  0.62336738  1
  Sb  Sb923  1  0.87663262  0.12336738  0.62336738  1
  Sb  Sb924  1  0.87663262  0.87663262  0.62336738  1
  Sb  Sb925  1  0.12336738  0.12336738  0.62336738  1
  Sb  Sb926  1  0.87663262  0.12336738  0.37663262  1
  Sb  Sb927  1  0.12336738  0.87663262  0.37663262  1
  Sb  Sb928  1  0.50000000  0.19972278  0.19972278  1
  Sb  Sb929  1  0.50000000  0.80027722  0.19972278  1
  Sb  Sb930  1  0.50000000  0.19972278  0.80027722  1
  Sb  Sb931  1  0.50000000  0.80027722  0.80027722  1
  Sb  Sb932  1  0.19972278  0.50000000  0.19972278  1
  Sb  Sb933  1  0.19972278  0.50000000  0.80027722  1
  Sb  Sb934  1  0.80027722  0.50000000  0.19972278  1
  Sb  Sb935  1  0.80027722  0.50000000  0.80027722  1
  Sb  Sb936  1  0.19972278  0.19972278  0.50000000  1
  Sb  Sb937  1  0.80027722  0.19972278  0.50000000  1
  Sb  Sb938  1  0.19972278  0.80027722  0.50000000  1
  Sb  Sb939  1  0.80027722  0.80027722  0.50000000  1
  Sb  Sb940  1  0.50000000  0.69972278  0.69972278  1
  Sb  Sb941  1  0.50000000  0.30027722  0.69972278  1
  Sb  Sb942  1  0.50000000  0.69972278  0.30027722  1
  Sb  Sb943  1  0.50000000  0.30027722  0.30027722  1
  Sb  Sb944  1  0.19972278  0.00000000  0.69972278  1
  Sb  Sb945  1  0.19972278  0.00000000  0.30027722  1
  Sb  Sb946  1  0.80027722  0.00000000  0.69972278  1
  Sb  Sb947  1  0.80027722  0.00000000  0.30027722  1
  Sb  Sb948  1  0.19972278  0.69972278  0.00000000  1
  Sb  Sb949  1  0.80027722  0.69972278  0.00000000  1
  Sb  Sb950  1  0.19972278  0.30027722  0.00000000  1
  Sb  Sb951  1  0.80027722  0.30027722  0.00000000  1
  Sb  Sb952  1  0.00000000  0.19972278  0.69972278  1
  Sb  Sb953  1  0.00000000  0.80027722  0.69972278  1
  Sb  Sb954  1  0.00000000  0.19972278  0.30027722  1
  Sb  Sb955  1  0.00000000  0.80027722  0.30027722  1
  Sb  Sb956  1  0.69972278  0.50000000  0.69972278  1
  Sb  Sb957  1  0.69972278  0.50000000  0.30027722  1
  Sb  Sb958  1  0.30027722  0.50000000  0.69972278  1
  Sb  Sb959  1  0.30027722  0.50000000  0.30027722  1
  Sb  Sb960  1  0.69972278  0.19972278  0.00000000  1
  Sb  Sb961  1  0.30027722  0.19972278  0.00000000  1
  Sb  Sb962  1  0.69972278  0.80027722  0.00000000  1
  Sb  Sb963  1  0.30027722  0.80027722  0.00000000  1
  Sb  Sb964  1  0.00000000  0.69972278  0.19972278  1
  Sb  Sb965  1  0.00000000  0.30027722  0.19972278  1
  Sb  Sb966  1  0.00000000  0.69972278  0.80027722  1
  Sb  Sb967  1  0.00000000  0.30027722  0.80027722  1
  Sb  Sb968  1  0.69972278  0.00000000  0.19972278  1
  Sb  Sb969  1  0.69972278  0.00000000  0.80027722  1
  Sb  Sb970  1  0.30027722  0.00000000  0.19972278  1
  Sb  Sb971  1  0.30027722  0.00000000  0.80027722  1
  Sb  Sb972  1  0.69972278  0.69972278  0.50000000  1
  Sb  Sb973  1  0.30027722  0.69972278  0.50000000  1
  Sb  Sb974  1  0.69972278  0.30027722  0.50000000  1
  Sb  Sb975  1  0.30027722  0.30027722  0.50000000  1
  Sb  Sb976  1  0.00000000  0.62557244  0.07145640  1
  Sb  Sb977  1  0.00000000  0.37442756  0.07145640  1
  Sb  Sb978  1  0.00000000  0.62557244  0.92854360  1
  Sb  Sb979  1  0.00000000  0.37442756  0.92854360  1
  Sb  Sb980  1  0.07145640  -0.00000000  0.62557244  1
  Sb  Sb981  1  0.07145640  -0.00000000  0.37442756  1
  Sb  Sb982  1  0.92854360  0.00000000  0.62557244  1
  Sb  Sb983  1  0.92854360  0.00000000  0.37442756  1
  Sb  Sb984  1  0.62557244  0.07145640  -0.00000000  1
  Sb  Sb985  1  0.37442756  0.07145640  0.00000000  1
  Sb  Sb986  1  0.62557244  0.92854360  0.00000000  1
  Sb  Sb987  1  0.37442756  0.92854360  -0.00000000  1
  Sb  Sb988  1  0.62557244  0.00000000  0.92854360  1
  Sb  Sb989  1  0.37442756  0.00000000  0.92854360  1
  Sb  Sb990  1  0.62557244  0.00000000  0.07145640  1
  Sb  Sb991  1  0.37442756  0.00000000  0.07145640  1
  Sb  Sb992  1  0.00000000  0.07145640  0.37442756  1
  Sb  Sb993  1  0.00000000  0.07145640  0.62557244  1
  Sb  Sb994  1  0.00000000  0.92854360  0.37442756  1
  Sb  Sb995  1  0.00000000  0.92854360  0.62557244  1
  Sb  Sb996  1  0.07145640  0.62557244  0.00000000  1
  Sb  Sb997  1  0.07145640  0.37442756  0.00000000  1
  Sb  Sb998  1  0.92854360  0.62557244  0.00000000  1
  Sb  Sb999  1  0.92854360  0.37442756  -0.00000000  1
  Sb  Sb1000  1  0.00000000  0.12557244  0.57145640  1
  Sb  Sb1001  1  0.00000000  0.87442756  0.57145640  1
  Sb  Sb1002  1  0.00000000  0.12557244  0.42854360  1
  Sb  Sb1003  1  0.00000000  0.87442756  0.42854360  1
  Sb  Sb1004  1  0.07145640  0.50000000  0.12557244  1
  Sb  Sb1005  1  0.07145640  0.50000000  0.87442756  1
  Sb  Sb1006  1  0.92854360  0.50000000  0.12557244  1
  Sb  Sb1007  1  0.92854360  0.50000000  0.87442756  1
  Sb  Sb1008  1  0.62557244  0.57145640  0.50000000  1
  Sb  Sb1009  1  0.37442756  0.57145640  0.50000000  1
  Sb  Sb1010  1  0.62557244  0.42854360  0.50000000  1
  Sb  Sb1011  1  0.37442756  0.42854360  0.50000000  1
  Sb  Sb1012  1  0.62557244  0.50000000  0.42854360  1
  Sb  Sb1013  1  0.37442756  0.50000000  0.42854360  1
  Sb  Sb1014  1  0.62557244  0.50000000  0.57145640  1
  Sb  Sb1015  1  0.37442756  0.50000000  0.57145640  1
  Sb  Sb1016  1  0.00000000  0.57145640  0.87442756  1
  Sb  Sb1017  1  0.00000000  0.57145640  0.12557244  1
  Sb  Sb1018  1  0.00000000  0.42854360  0.87442756  1
  Sb  Sb1019  1  0.00000000  0.42854360  0.12557244  1
  Sb  Sb1020  1  0.07145640  0.12557244  0.50000000  1
  Sb  Sb1021  1  0.07145640  0.87442756  0.50000000  1
  Sb  Sb1022  1  0.92854360  0.12557244  0.50000000  1
  Sb  Sb1023  1  0.92854360  0.87442756  0.50000000  1
  Sb  Sb1024  1  0.50000000  0.62557244  0.57145640  1
  Sb  Sb1025  1  0.50000000  0.37442756  0.57145640  1
  Sb  Sb1026  1  0.50000000  0.62557244  0.42854360  1
  Sb  Sb1027  1  0.50000000  0.37442756  0.42854360  1
  Sb  Sb1028  1  0.57145640  0.00000000  0.12557244  1
  Sb  Sb1029  1  0.57145640  0.00000000  0.87442756  1
  Sb  Sb1030  1  0.42854360  0.00000000  0.12557244  1
  Sb  Sb1031  1  0.42854360  0.00000000  0.87442756  1
  Sb  Sb1032  1  0.12557244  0.07145640  0.50000000  1
  Sb  Sb1033  1  0.87442756  0.07145640  0.50000000  1
  Sb  Sb1034  1  0.12557244  0.92854360  0.50000000  1
  Sb  Sb1035  1  0.87442756  0.92854360  0.50000000  1
  Sb  Sb1036  1  0.12557244  0.00000000  0.42854360  1
  Sb  Sb1037  1  0.87442756  -0.00000000  0.42854360  1
  Sb  Sb1038  1  0.12557244  0.00000000  0.57145640  1
  Sb  Sb1039  1  0.87442756  -0.00000000  0.57145640  1
  Sb  Sb1040  1  0.50000000  0.07145640  0.87442756  1
  Sb  Sb1041  1  0.50000000  0.07145640  0.12557244  1
  Sb  Sb1042  1  0.50000000  0.92854360  0.87442756  1
  Sb  Sb1043  1  0.50000000  0.92854360  0.12557244  1
  Sb  Sb1044  1  0.57145640  0.62557244  0.50000000  1
  Sb  Sb1045  1  0.57145640  0.37442756  0.50000000  1
  Sb  Sb1046  1  0.42854360  0.62557244  0.50000000  1
  Sb  Sb1047  1  0.42854360  0.37442756  0.50000000  1
  Sb  Sb1048  1  0.50000000  0.12557244  0.07145640  1
  Sb  Sb1049  1  0.50000000  0.87442756  0.07145640  1
  Sb  Sb1050  1  0.50000000  0.12557244  0.92854360  1
  Sb  Sb1051  1  0.50000000  0.87442756  0.92854360  1
  Sb  Sb1052  1  0.57145640  0.50000000  0.62557244  1
  Sb  Sb1053  1  0.57145640  0.50000000  0.37442756  1
  Sb  Sb1054  1  0.42854360  0.50000000  0.62557244  1
  Sb  Sb1055  1  0.42854360  0.50000000  0.37442756  1
  Sb  Sb1056  1  0.12557244  0.57145640  0.00000000  1
  Sb  Sb1057  1  0.87442756  0.57145640  0.00000000  1
  Sb  Sb1058  1  0.12557244  0.42854360  0.00000000  1
  Sb  Sb1059  1  0.87442756  0.42854360  -0.00000000  1
  Sb  Sb1060  1  0.12557244  0.50000000  0.92854360  1
  Sb  Sb1061  1  0.87442756  0.50000000  0.92854360  1
  Sb  Sb1062  1  0.12557244  0.50000000  0.07145640  1
  Sb  Sb1063  1  0.87442756  0.50000000  0.07145640  1
  Sb  Sb1064  1  0.50000000  0.57145640  0.37442756  1
  Sb  Sb1065  1  0.50000000  0.57145640  0.62557244  1
  Sb  Sb1066  1  0.50000000  0.42854360  0.37442756  1
  Sb  Sb1067  1  0.50000000  0.42854360  0.62557244  1
  Sb  Sb1068  1  0.57145640  0.12557244  0.00000000  1
  Sb  Sb1069  1  0.57145640  0.87442756  0.00000000  1
  Sb  Sb1070  1  0.42854360  0.12557244  0.00000000  1
  Sb  Sb1071  1  0.42854360  0.87442756  -0.00000000  1
  Sb  Sb1072  1  0.00000000  0.65070828  0.65070828  1
  Sb  Sb1073  1  0.00000000  0.34929172  0.65070828  1
  Sb  Sb1074  1  0.00000000  0.65070828  0.34929172  1
  Sb  Sb1075  1  0.00000000  0.34929172  0.34929172  1
  Sb  Sb1076  1  0.65070828  0.00000000  0.65070828  1
  Sb  Sb1077  1  0.65070828  0.00000000  0.34929172  1
  Sb  Sb1078  1  0.34929172  0.00000000  0.65070828  1
  Sb  Sb1079  1  0.34929172  0.00000000  0.34929172  1
  Sb  Sb1080  1  0.65070828  0.65070828  0.00000000  1
  Sb  Sb1081  1  0.34929172  0.65070828  0.00000000  1
  Sb  Sb1082  1  0.65070828  0.34929172  0.00000000  1
  Sb  Sb1083  1  0.34929172  0.34929172  0.00000000  1
  Sb  Sb1084  1  0.00000000  0.15070828  0.15070828  1
  Sb  Sb1085  1  0.00000000  0.84929172  0.15070828  1
  Sb  Sb1086  1  0.00000000  0.15070828  0.84929172  1
  Sb  Sb1087  1  0.00000000  0.84929172  0.84929172  1
  Sb  Sb1088  1  0.65070828  0.50000000  0.15070828  1
  Sb  Sb1089  1  0.65070828  0.50000000  0.84929172  1
  Sb  Sb1090  1  0.34929172  0.50000000  0.15070828  1
  Sb  Sb1091  1  0.34929172  0.50000000  0.84929172  1
  Sb  Sb1092  1  0.65070828  0.15070828  0.50000000  1
  Sb  Sb1093  1  0.34929172  0.15070828  0.50000000  1
  Sb  Sb1094  1  0.65070828  0.84929172  0.50000000  1
  Sb  Sb1095  1  0.34929172  0.84929172  0.50000000  1
  Sb  Sb1096  1  0.50000000  0.65070828  0.15070828  1
  Sb  Sb1097  1  0.50000000  0.34929172  0.15070828  1
  Sb  Sb1098  1  0.50000000  0.65070828  0.84929172  1
  Sb  Sb1099  1  0.50000000  0.34929172  0.84929172  1
  Sb  Sb1100  1  0.15070828  0.00000000  0.15070828  1
  Sb  Sb1101  1  0.15070828  0.00000000  0.84929172  1
  Sb  Sb1102  1  0.84929172  0.00000000  0.15070828  1
  Sb  Sb1103  1  0.84929172  0.00000000  0.84929172  1
  Sb  Sb1104  1  0.15070828  0.65070828  0.50000000  1
  Sb  Sb1105  1  0.84929172  0.65070828  0.50000000  1
  Sb  Sb1106  1  0.15070828  0.34929172  0.50000000  1
  Sb  Sb1107  1  0.84929172  0.34929172  0.50000000  1
  Sb  Sb1108  1  0.50000000  0.15070828  0.65070828  1
  Sb  Sb1109  1  0.50000000  0.84929172  0.65070828  1
  Sb  Sb1110  1  0.50000000  0.15070828  0.34929172  1
  Sb  Sb1111  1  0.50000000  0.84929172  0.34929172  1
  Sb  Sb1112  1  0.15070828  0.50000000  0.65070828  1
  Sb  Sb1113  1  0.15070828  0.50000000  0.34929172  1
  Sb  Sb1114  1  0.84929172  0.50000000  0.65070828  1
  Sb  Sb1115  1  0.84929172  0.50000000  0.34929172  1
  Sb  Sb1116  1  0.15070828  0.15070828  0.00000000  1
  Sb  Sb1117  1  0.84929172  0.15070828  0.00000000  1
  Sb  Sb1118  1  0.15070828  0.84929172  0.00000000  1
  Sb  Sb1119  1  0.84929172  0.84929172  0.00000000  1
  Sb  Sb1120  1  0.17847915  0.17847915  0.17847915  1
  Sb  Sb1121  1  0.82152085  0.82152085  0.17847915  1
  Sb  Sb1122  1  0.82152085  0.17847915  0.82152085  1
  Sb  Sb1123  1  0.17847915  0.82152085  0.82152085  1
  Sb  Sb1124  1  0.17847915  0.17847915  0.82152085  1
  Sb  Sb1125  1  0.82152085  0.82152085  0.82152085  1
  Sb  Sb1126  1  0.17847915  0.82152085  0.17847915  1
  Sb  Sb1127  1  0.82152085  0.17847915  0.17847915  1
  Sb  Sb1128  1  0.17847915  0.67847915  0.67847915  1
  Sb  Sb1129  1  0.82152085  0.32152085  0.67847915  1
  Sb  Sb1130  1  0.82152085  0.67847915  0.32152085  1
  Sb  Sb1131  1  0.17847915  0.32152085  0.32152085  1
  Sb  Sb1132  1  0.17847915  0.67847915  0.32152085  1
  Sb  Sb1133  1  0.82152085  0.32152085  0.32152085  1
  Sb  Sb1134  1  0.17847915  0.32152085  0.67847915  1
  Sb  Sb1135  1  0.82152085  0.67847915  0.67847915  1
  Sb  Sb1136  1  0.67847915  0.17847915  0.67847915  1
  Sb  Sb1137  1  0.32152085  0.82152085  0.67847915  1
  Sb  Sb1138  1  0.32152085  0.17847915  0.32152085  1
  Sb  Sb1139  1  0.67847915  0.82152085  0.32152085  1
  Sb  Sb1140  1  0.67847915  0.17847915  0.32152085  1
  Sb  Sb1141  1  0.32152085  0.82152085  0.32152085  1
  Sb  Sb1142  1  0.67847915  0.82152085  0.67847915  1
  Sb  Sb1143  1  0.32152085  0.17847915  0.67847915  1
  Sb  Sb1144  1  0.67847915  0.67847915  0.17847915  1
  Sb  Sb1145  1  0.32152085  0.32152085  0.17847915  1
  Sb  Sb1146  1  0.32152085  0.67847915  0.82152085  1
  Sb  Sb1147  1  0.67847915  0.32152085  0.82152085  1
  Sb  Sb1148  1  0.67847915  0.67847915  0.82152085  1
  Sb  Sb1149  1  0.32152085  0.32152085  0.82152085  1
  Sb  Sb1150  1  0.67847915  0.32152085  0.17847915  1
  Sb  Sb1151  1  0.32152085  0.67847915  0.17847915  1
