# generated using pymatgen
data_LiBr
_symmetry_space_group_name_H-M   'P 1'
_cell_length_a   25.20806047
_cell_length_b   25.20806047
_cell_length_c   25.20806047
_cell_angle_alpha   90.00000000
_cell_angle_beta   90.00000000
_cell_angle_gamma   90.00000000
_symmetry_Int_Tables_number   1
_chemical_formula_structural   LiBr
_chemical_formula_sum   'Li384 Br384'
_cell_volume   16018.36908330
_cell_formula_units_Z   384
loop_
 _symmetry_equiv_pos_site_id
 _symmetry_equiv_pos_as_xyz
  1  'x, y, z'
loop_
 _atom_site_type_symbol
 _atom_site_label
 _atom_site_symmetry_multiplicity
 _atom_site_fract_x
 _atom_site_fract_y
 _atom_site_fract_z
 _atom_site_occupancy
  Br  Br0  1  0.50000000  0.57793220  0.57793220  1
  Br  Br1  1  0.50000000  0.42206780  0.57793220  1
  Br  Br2  1  0.50000000  0.57793220  0.42206780  1
  Br  Br3  1  0.50000000  0.42206780  0.42206780  1
  Br  Br4  1  0.57793220  0.50000000  0.57793220  1
  Br  Br5  1  0.57793220  0.50000000  0.42206780  1
  Br  Br6  1  0.42206780  0.50000000  0.57793220  1
  Br  Br7  1  0.42206780  0.50000000  0.42206780  1
  Br  Br8  1  0.57793220  0.57793220  0.50000000  1
  Br  Br9  1  0.42206780  0.57793220  0.50000000  1
  Br  Br10  1  0.57793220  0.42206780  0.50000000  1
  Br  Br11  1  0.42206780  0.42206780  0.50000000  1
  Br  Br12  1  0.50000000  0.07793220  0.07793220  1
  Br  Br13  1  0.50000000  0.92206780  0.07793220  1
  Br  Br14  1  0.50000000  0.07793220  0.92206780  1
  Br  Br15  1  0.50000000  0.92206780  0.92206780  1
  Br  Br16  1  0.57793220  0.00000000  0.07793220  1
  Br  Br17  1  0.57793220  0.00000000  0.92206780  1
  Br  Br18  1  0.42206780  0.00000000  0.07793220  1
  Br  Br19  1  0.42206780  0.00000000  0.92206780  1
  Br  Br20  1  0.57793220  0.07793220  0.00000000  1
  Br  Br21  1  0.42206780  0.07793220  0.00000000  1
  Br  Br22  1  0.57793220  0.92206780  0.00000000  1
  Br  Br23  1  0.42206780  0.92206780  0.00000000  1
  Br  Br24  1  0.00000000  0.57793220  0.07793220  1
  Br  Br25  1  0.00000000  0.42206780  0.07793220  1
  Br  Br26  1  0.00000000  0.57793220  0.92206780  1
  Br  Br27  1  0.00000000  0.42206780  0.92206780  1
  Br  Br28  1  0.07793220  0.50000000  0.07793220  1
  Br  Br29  1  0.07793220  0.50000000  0.92206780  1
  Br  Br30  1  0.92206780  0.50000000  0.07793220  1
  Br  Br31  1  0.92206780  0.50000000  0.92206780  1
  Br  Br32  1  0.07793220  0.57793220  0.00000000  1
  Br  Br33  1  0.92206780  0.57793220  0.00000000  1
  Br  Br34  1  0.07793220  0.42206780  0.00000000  1
  Br  Br35  1  0.92206780  0.42206780  0.00000000  1
  Br  Br36  1  0.00000000  0.07793220  0.57793220  1
  Br  Br37  1  0.00000000  0.92206780  0.57793220  1
  Br  Br38  1  0.00000000  0.07793220  0.42206780  1
  Br  Br39  1  0.00000000  0.92206780  0.42206780  1
  Br  Br40  1  0.07793220  0.00000000  0.57793220  1
  Br  Br41  1  0.07793220  0.00000000  0.42206780  1
  Br  Br42  1  0.92206780  0.00000000  0.57793220  1
  Br  Br43  1  0.92206780  0.00000000  0.42206780  1
  Br  Br44  1  0.07793220  0.07793220  0.50000000  1
  Br  Br45  1  0.92206780  0.07793220  0.50000000  1
  Br  Br46  1  0.07793220  0.92206780  0.50000000  1
  Br  Br47  1  0.92206780  0.92206780  0.50000000  1
  Br  Br48  1  0.71966349  0.71966349  0.16970468  1
  Br  Br49  1  0.28033651  0.28033651  0.16970468  1
  Br  Br50  1  0.28033651  0.71966349  0.83029532  1
  Br  Br51  1  0.71966349  0.28033651  0.83029532  1
  Br  Br52  1  0.16970468  0.71966349  0.71966349  1
  Br  Br53  1  0.16970468  0.28033651  0.28033651  1
  Br  Br54  1  0.83029532  0.28033651  0.71966349  1
  Br  Br55  1  0.83029532  0.71966349  0.28033651  1
  Br  Br56  1  0.71966349  0.16970468  0.71966349  1
  Br  Br57  1  0.28033651  0.16970468  0.28033651  1
  Br  Br58  1  0.71966349  0.83029532  0.28033651  1
  Br  Br59  1  0.28033651  0.83029532  0.71966349  1
  Br  Br60  1  0.71966349  0.71966349  0.83029532  1
  Br  Br61  1  0.28033651  0.28033651  0.83029532  1
  Br  Br62  1  0.71966349  0.28033651  0.16970468  1
  Br  Br63  1  0.28033651  0.71966349  0.16970468  1
  Br  Br64  1  0.71966349  0.16970468  0.28033651  1
  Br  Br65  1  0.28033651  0.16970468  0.71966349  1
  Br  Br66  1  0.28033651  0.83029532  0.28033651  1
  Br  Br67  1  0.71966349  0.83029532  0.71966349  1
  Br  Br68  1  0.16970468  0.71966349  0.28033651  1
  Br  Br69  1  0.16970468  0.28033651  0.71966349  1
  Br  Br70  1  0.83029532  0.71966349  0.71966349  1
  Br  Br71  1  0.83029532  0.28033651  0.28033651  1
  Br  Br72  1  0.71966349  0.21966349  0.66970468  1
  Br  Br73  1  0.28033651  0.78033651  0.66970468  1
  Br  Br74  1  0.28033651  0.21966349  0.33029532  1
  Br  Br75  1  0.71966349  0.78033651  0.33029532  1
  Br  Br76  1  0.16970468  0.21966349  0.21966349  1
  Br  Br77  1  0.16970468  0.78033651  0.78033651  1
  Br  Br78  1  0.83029532  0.78033651  0.21966349  1
  Br  Br79  1  0.83029532  0.21966349  0.78033651  1
  Br  Br80  1  0.71966349  0.66970468  0.21966349  1
  Br  Br81  1  0.28033651  0.66970468  0.78033651  1
  Br  Br82  1  0.71966349  0.33029532  0.78033651  1
  Br  Br83  1  0.28033651  0.33029532  0.21966349  1
  Br  Br84  1  0.71966349  0.21966349  0.33029532  1
  Br  Br85  1  0.28033651  0.78033651  0.33029532  1
  Br  Br86  1  0.71966349  0.78033651  0.66970468  1
  Br  Br87  1  0.28033651  0.21966349  0.66970468  1
  Br  Br88  1  0.71966349  0.66970468  0.78033651  1
  Br  Br89  1  0.28033651  0.66970468  0.21966349  1
  Br  Br90  1  0.28033651  0.33029532  0.78033651  1
  Br  Br91  1  0.71966349  0.33029532  0.21966349  1
  Br  Br92  1  0.16970468  0.21966349  0.78033651  1
  Br  Br93  1  0.16970468  0.78033651  0.21966349  1
  Br  Br94  1  0.83029532  0.21966349  0.21966349  1
  Br  Br95  1  0.83029532  0.78033651  0.78033651  1
  Br  Br96  1  0.21966349  0.71966349  0.66970468  1
  Br  Br97  1  0.78033651  0.28033651  0.66970468  1
  Br  Br98  1  0.78033651  0.71966349  0.33029532  1
  Br  Br99  1  0.21966349  0.28033651  0.33029532  1
  Br  Br100  1  0.66970468  0.71966349  0.21966349  1
  Br  Br101  1  0.66970468  0.28033651  0.78033651  1
  Br  Br102  1  0.33029532  0.28033651  0.21966349  1
  Br  Br103  1  0.33029532  0.71966349  0.78033651  1
  Br  Br104  1  0.21966349  0.16970468  0.21966349  1
  Br  Br105  1  0.78033651  0.16970468  0.78033651  1
  Br  Br106  1  0.21966349  0.83029532  0.78033651  1
  Br  Br107  1  0.78033651  0.83029532  0.21966349  1
  Br  Br108  1  0.21966349  0.71966349  0.33029532  1
  Br  Br109  1  0.78033651  0.28033651  0.33029532  1
  Br  Br110  1  0.21966349  0.28033651  0.66970468  1
  Br  Br111  1  0.78033651  0.71966349  0.66970468  1
  Br  Br112  1  0.21966349  0.16970468  0.78033651  1
  Br  Br113  1  0.78033651  0.16970468  0.21966349  1
  Br  Br114  1  0.78033651  0.83029532  0.78033651  1
  Br  Br115  1  0.21966349  0.83029532  0.21966349  1
  Br  Br116  1  0.66970468  0.71966349  0.78033651  1
  Br  Br117  1  0.66970468  0.28033651  0.21966349  1
  Br  Br118  1  0.33029532  0.71966349  0.21966349  1
  Br  Br119  1  0.33029532  0.28033651  0.78033651  1
  Br  Br120  1  0.21966349  0.21966349  0.16970468  1
  Br  Br121  1  0.78033651  0.78033651  0.16970468  1
  Br  Br122  1  0.78033651  0.21966349  0.83029532  1
  Br  Br123  1  0.21966349  0.78033651  0.83029532  1
  Br  Br124  1  0.66970468  0.21966349  0.71966349  1
  Br  Br125  1  0.66970468  0.78033651  0.28033651  1
  Br  Br126  1  0.33029532  0.78033651  0.71966349  1
  Br  Br127  1  0.33029532  0.21966349  0.28033651  1
  Br  Br128  1  0.21966349  0.66970468  0.71966349  1
  Br  Br129  1  0.78033651  0.66970468  0.28033651  1
  Br  Br130  1  0.21966349  0.33029532  0.28033651  1
  Br  Br131  1  0.78033651  0.33029532  0.71966349  1
  Br  Br132  1  0.21966349  0.21966349  0.83029532  1
  Br  Br133  1  0.78033651  0.78033651  0.83029532  1
  Br  Br134  1  0.21966349  0.78033651  0.16970468  1
  Br  Br135  1  0.78033651  0.21966349  0.16970468  1
  Br  Br136  1  0.21966349  0.66970468  0.28033651  1
  Br  Br137  1  0.78033651  0.66970468  0.71966349  1
  Br  Br138  1  0.78033651  0.33029532  0.28033651  1
  Br  Br139  1  0.21966349  0.33029532  0.71966349  1
  Br  Br140  1  0.66970468  0.21966349  0.28033651  1
  Br  Br141  1  0.66970468  0.78033651  0.71966349  1
  Br  Br142  1  0.33029532  0.21966349  0.71966349  1
  Br  Br143  1  0.33029532  0.78033651  0.28033651  1
  Br  Br144  1  0.35103710  0.35103710  0.22403633  1
  Br  Br145  1  0.64896290  0.64896290  0.22403633  1
  Br  Br146  1  0.64896290  0.35103710  0.77596367  1
  Br  Br147  1  0.35103710  0.64896290  0.77596367  1
  Br  Br148  1  0.22403633  0.35103710  0.35103710  1
  Br  Br149  1  0.22403633  0.64896290  0.64896290  1
  Br  Br150  1  0.77596367  0.64896290  0.35103710  1
  Br  Br151  1  0.77596367  0.35103710  0.64896290  1
  Br  Br152  1  0.35103710  0.22403633  0.35103710  1
  Br  Br153  1  0.64896290  0.22403633  0.64896290  1
  Br  Br154  1  0.35103710  0.77596367  0.64896290  1
  Br  Br155  1  0.64896290  0.77596367  0.35103710  1
  Br  Br156  1  0.35103710  0.35103710  0.77596367  1
  Br  Br157  1  0.64896290  0.64896290  0.77596367  1
  Br  Br158  1  0.35103710  0.64896290  0.22403633  1
  Br  Br159  1  0.64896290  0.35103710  0.22403633  1
  Br  Br160  1  0.35103710  0.22403633  0.64896290  1
  Br  Br161  1  0.64896290  0.22403633  0.35103710  1
  Br  Br162  1  0.64896290  0.77596367  0.64896290  1
  Br  Br163  1  0.35103710  0.77596367  0.35103710  1
  Br  Br164  1  0.22403633  0.35103710  0.64896290  1
  Br  Br165  1  0.22403633  0.64896290  0.35103710  1
  Br  Br166  1  0.77596367  0.35103710  0.35103710  1
  Br  Br167  1  0.77596367  0.64896290  0.64896290  1
  Br  Br168  1  0.35103710  0.85103710  0.72403633  1
  Br  Br169  1  0.64896290  0.14896290  0.72403633  1
  Br  Br170  1  0.64896290  0.85103710  0.27596367  1
  Br  Br171  1  0.35103710  0.14896290  0.27596367  1
  Br  Br172  1  0.22403633  0.85103710  0.85103710  1
  Br  Br173  1  0.22403633  0.14896290  0.14896290  1
  Br  Br174  1  0.77596367  0.14896290  0.85103710  1
  Br  Br175  1  0.77596367  0.85103710  0.14896290  1
  Br  Br176  1  0.35103710  0.72403633  0.85103710  1
  Br  Br177  1  0.64896290  0.72403633  0.14896290  1
  Br  Br178  1  0.35103710  0.27596367  0.14896290  1
  Br  Br179  1  0.64896290  0.27596367  0.85103710  1
  Br  Br180  1  0.35103710  0.85103710  0.27596367  1
  Br  Br181  1  0.64896290  0.14896290  0.27596367  1
  Br  Br182  1  0.35103710  0.14896290  0.72403633  1
  Br  Br183  1  0.64896290  0.85103710  0.72403633  1
  Br  Br184  1  0.35103710  0.72403633  0.14896290  1
  Br  Br185  1  0.64896290  0.72403633  0.85103710  1
  Br  Br186  1  0.64896290  0.27596367  0.14896290  1
  Br  Br187  1  0.35103710  0.27596367  0.85103710  1
  Br  Br188  1  0.22403633  0.85103710  0.14896290  1
  Br  Br189  1  0.22403633  0.14896290  0.85103710  1
  Br  Br190  1  0.77596367  0.85103710  0.85103710  1
  Br  Br191  1  0.77596367  0.14896290  0.14896290  1
  Br  Br192  1  0.85103710  0.35103710  0.72403633  1
  Br  Br193  1  0.14896290  0.64896290  0.72403633  1
  Br  Br194  1  0.14896290  0.35103710  0.27596367  1
  Br  Br195  1  0.85103710  0.64896290  0.27596367  1
  Br  Br196  1  0.72403633  0.35103710  0.85103710  1
  Br  Br197  1  0.72403633  0.64896290  0.14896290  1
  Br  Br198  1  0.27596367  0.64896290  0.85103710  1
  Br  Br199  1  0.27596367  0.35103710  0.14896290  1
  Br  Br200  1  0.85103710  0.22403633  0.85103710  1
  Br  Br201  1  0.14896290  0.22403633  0.14896290  1
  Br  Br202  1  0.85103710  0.77596367  0.14896290  1
  Br  Br203  1  0.14896290  0.77596367  0.85103710  1
  Br  Br204  1  0.85103710  0.35103710  0.27596367  1
  Br  Br205  1  0.14896290  0.64896290  0.27596367  1
  Br  Br206  1  0.85103710  0.64896290  0.72403633  1
  Br  Br207  1  0.14896290  0.35103710  0.72403633  1
  Br  Br208  1  0.85103710  0.22403633  0.14896290  1
  Br  Br209  1  0.14896290  0.22403633  0.85103710  1
  Br  Br210  1  0.14896290  0.77596367  0.14896290  1
  Br  Br211  1  0.85103710  0.77596367  0.85103710  1
  Br  Br212  1  0.72403633  0.35103710  0.14896290  1
  Br  Br213  1  0.72403633  0.64896290  0.85103710  1
  Br  Br214  1  0.27596367  0.35103710  0.85103710  1
  Br  Br215  1  0.27596367  0.64896290  0.14896290  1
  Br  Br216  1  0.85103710  0.85103710  0.22403633  1
  Br  Br217  1  0.14896290  0.14896290  0.22403633  1
  Br  Br218  1  0.14896290  0.85103710  0.77596367  1
  Br  Br219  1  0.85103710  0.14896290  0.77596367  1
  Br  Br220  1  0.72403633  0.85103710  0.35103710  1
  Br  Br221  1  0.72403633  0.14896290  0.64896290  1
  Br  Br222  1  0.27596367  0.14896290  0.35103710  1
  Br  Br223  1  0.27596367  0.85103710  0.64896290  1
  Br  Br224  1  0.85103710  0.72403633  0.35103710  1
  Br  Br225  1  0.14896290  0.72403633  0.64896290  1
  Br  Br226  1  0.85103710  0.27596367  0.64896290  1
  Br  Br227  1  0.14896290  0.27596367  0.35103710  1
  Br  Br228  1  0.85103710  0.85103710  0.77596367  1
  Br  Br229  1  0.14896290  0.14896290  0.77596367  1
  Br  Br230  1  0.85103710  0.14896290  0.22403633  1
  Br  Br231  1  0.14896290  0.85103710  0.22403633  1
  Br  Br232  1  0.85103710  0.72403633  0.64896290  1
  Br  Br233  1  0.14896290  0.72403633  0.35103710  1
  Br  Br234  1  0.14896290  0.27596367  0.64896290  1
  Br  Br235  1  0.85103710  0.27596367  0.35103710  1
  Br  Br236  1  0.72403633  0.85103710  0.64896290  1
  Br  Br237  1  0.72403633  0.14896290  0.35103710  1
  Br  Br238  1  0.27596367  0.85103710  0.35103710  1
  Br  Br239  1  0.27596367  0.14896290  0.64896290  1
  Br  Br240  1  0.00000000  0.94457626  0.62844664  1
  Br  Br241  1  0.00000000  0.05542374  0.62844664  1
  Br  Br242  1  0.00000000  0.94457626  0.37155336  1
  Br  Br243  1  0.00000000  0.05542374  0.37155336  1
  Br  Br244  1  0.62844664  0.00000000  0.94457626  1
  Br  Br245  1  0.62844664  0.00000000  0.05542374  1
  Br  Br246  1  0.37155336  0.00000000  0.94457626  1
  Br  Br247  1  0.37155336  0.00000000  0.05542374  1
  Br  Br248  1  0.94457626  0.62844664  0.00000000  1
  Br  Br249  1  0.05542374  0.62844664  0.00000000  1
  Br  Br250  1  0.94457626  0.37155336  0.00000000  1
  Br  Br251  1  0.05542374  0.37155336  -0.00000000  1
  Br  Br252  1  0.94457626  0.00000000  0.37155336  1
  Br  Br253  1  0.05542374  0.00000000  0.37155336  1
  Br  Br254  1  0.94457626  0.00000000  0.62844664  1
  Br  Br255  1  0.05542374  0.00000000  0.62844664  1
  Br  Br256  1  0.00000000  0.62844664  0.05542374  1
  Br  Br257  1  0.00000000  0.62844664  0.94457626  1
  Br  Br258  1  0.00000000  0.37155336  0.05542374  1
  Br  Br259  1  0.00000000  0.37155336  0.94457626  1
  Br  Br260  1  0.62844664  0.94457626  0.00000000  1
  Br  Br261  1  0.62844664  0.05542374  0.00000000  1
  Br  Br262  1  0.37155336  0.94457626  0.00000000  1
  Br  Br263  1  0.37155336  0.05542374  -0.00000000  1
  Br  Br264  1  0.00000000  0.44457626  0.12844664  1
  Br  Br265  1  0.00000000  0.55542374  0.12844664  1
  Br  Br266  1  0.00000000  0.44457626  0.87155336  1
  Br  Br267  1  0.00000000  0.55542374  0.87155336  1
  Br  Br268  1  0.62844664  0.50000000  0.44457626  1
  Br  Br269  1  0.62844664  0.50000000  0.55542374  1
  Br  Br270  1  0.37155336  0.50000000  0.44457626  1
  Br  Br271  1  0.37155336  0.50000000  0.55542374  1
  Br  Br272  1  0.94457626  0.12844664  0.50000000  1
  Br  Br273  1  0.05542374  0.12844664  0.50000000  1
  Br  Br274  1  0.94457626  0.87155336  0.50000000  1
  Br  Br275  1  0.05542374  0.87155336  0.50000000  1
  Br  Br276  1  0.94457626  0.50000000  0.87155336  1
  Br  Br277  1  0.05542374  0.50000000  0.87155336  1
  Br  Br278  1  0.94457626  0.50000000  0.12844664  1
  Br  Br279  1  0.05542374  0.50000000  0.12844664  1
  Br  Br280  1  0.00000000  0.12844664  0.55542374  1
  Br  Br281  1  0.00000000  0.12844664  0.44457626  1
  Br  Br282  1  0.00000000  0.87155336  0.55542374  1
  Br  Br283  1  0.00000000  0.87155336  0.44457626  1
  Br  Br284  1  0.62844664  0.44457626  0.50000000  1
  Br  Br285  1  0.62844664  0.55542374  0.50000000  1
  Br  Br286  1  0.37155336  0.44457626  0.50000000  1
  Br  Br287  1  0.37155336  0.55542374  0.50000000  1
  Br  Br288  1  0.50000000  0.94457626  0.12844664  1
  Br  Br289  1  0.50000000  0.05542374  0.12844664  1
  Br  Br290  1  0.50000000  0.94457626  0.87155336  1
  Br  Br291  1  0.50000000  0.05542374  0.87155336  1
  Br  Br292  1  0.12844664  0.00000000  0.44457626  1
  Br  Br293  1  0.12844664  0.00000000  0.55542374  1
  Br  Br294  1  0.87155336  0.00000000  0.44457626  1
  Br  Br295  1  0.87155336  0.00000000  0.55542374  1
  Br  Br296  1  0.44457626  0.62844664  0.50000000  1
  Br  Br297  1  0.55542374  0.62844664  0.50000000  1
  Br  Br298  1  0.44457626  0.37155336  0.50000000  1
  Br  Br299  1  0.55542374  0.37155336  0.50000000  1
  Br  Br300  1  0.44457626  0.00000000  0.87155336  1
  Br  Br301  1  0.55542374  0.00000000  0.87155336  1
  Br  Br302  1  0.44457626  0.00000000  0.12844664  1
  Br  Br303  1  0.55542374  0.00000000  0.12844664  1
  Br  Br304  1  0.50000000  0.62844664  0.55542374  1
  Br  Br305  1  0.50000000  0.62844664  0.44457626  1
  Br  Br306  1  0.50000000  0.37155336  0.55542374  1
  Br  Br307  1  0.50000000  0.37155336  0.44457626  1
  Br  Br308  1  0.12844664  0.94457626  0.50000000  1
  Br  Br309  1  0.12844664  0.05542374  0.50000000  1
  Br  Br310  1  0.87155336  0.94457626  0.50000000  1
  Br  Br311  1  0.87155336  0.05542374  0.50000000  1
  Br  Br312  1  0.50000000  0.44457626  0.62844664  1
  Br  Br313  1  0.50000000  0.55542374  0.62844664  1
  Br  Br314  1  0.50000000  0.44457626  0.37155336  1
  Br  Br315  1  0.50000000  0.55542374  0.37155336  1
  Br  Br316  1  0.12844664  0.50000000  0.94457626  1
  Br  Br317  1  0.12844664  0.50000000  0.05542374  1
  Br  Br318  1  0.87155336  0.50000000  0.94457626  1
  Br  Br319  1  0.87155336  0.50000000  0.05542374  1
  Br  Br320  1  0.44457626  0.12844664  0.00000000  1
  Br  Br321  1  0.55542374  0.12844664  -0.00000000  1
  Br  Br322  1  0.44457626  0.87155336  0.00000000  1
  Br  Br323  1  0.55542374  0.87155336  0.00000000  1
  Br  Br324  1  0.44457626  0.50000000  0.37155336  1
  Br  Br325  1  0.55542374  0.50000000  0.37155336  1
  Br  Br326  1  0.44457626  0.50000000  0.62844664  1
  Br  Br327  1  0.55542374  0.50000000  0.62844664  1
  Br  Br328  1  0.50000000  0.12844664  0.05542374  1
  Br  Br329  1  0.50000000  0.12844664  0.94457626  1
  Br  Br330  1  0.50000000  0.87155336  0.05542374  1
  Br  Br331  1  0.50000000  0.87155336  0.94457626  1
  Br  Br332  1  0.12844664  0.44457626  0.00000000  1
  Br  Br333  1  0.12844664  0.55542374  0.00000000  1
  Br  Br334  1  0.87155336  0.44457626  0.00000000  1
  Br  Br335  1  0.87155336  0.55542374  0.00000000  1
  Br  Br336  1  0.11627801  0.00000000  0.00000000  1
  Br  Br337  1  0.88372199  0.00000000  0.00000000  1
  Br  Br338  1  0.00000000  0.11627801  0.00000000  1
  Br  Br339  1  0.00000000  0.88372199  0.00000000  1
  Br  Br340  1  0.00000000  0.00000000  0.11627801  1
  Br  Br341  1  0.00000000  0.00000000  0.88372199  1
  Br  Br342  1  0.11627801  0.50000000  0.50000000  1
  Br  Br343  1  0.88372199  0.50000000  0.50000000  1
  Br  Br344  1  0.00000000  0.61627801  0.50000000  1
  Br  Br345  1  0.00000000  0.38372199  0.50000000  1
  Br  Br346  1  0.00000000  0.50000000  0.61627801  1
  Br  Br347  1  0.00000000  0.50000000  0.38372199  1
  Br  Br348  1  0.61627801  0.00000000  0.50000000  1
  Br  Br349  1  0.38372199  0.00000000  0.50000000  1
  Br  Br350  1  0.50000000  0.11627801  0.50000000  1
  Br  Br351  1  0.50000000  0.88372199  0.50000000  1
  Br  Br352  1  0.50000000  0.00000000  0.61627801  1
  Br  Br353  1  0.50000000  0.00000000  0.38372199  1
  Br  Br354  1  0.61627801  0.50000000  0.00000000  1
  Br  Br355  1  0.38372199  0.50000000  0.00000000  1
  Br  Br356  1  0.50000000  0.61627801  0.00000000  1
  Br  Br357  1  0.50000000  0.38372199  0.00000000  1
  Br  Br358  1  0.50000000  0.50000000  0.11627801  1
  Br  Br359  1  0.50000000  0.50000000  0.88372199  1
  Br  Br360  1  0.00000000  0.25000000  0.25000000  1
  Br  Br361  1  0.00000000  0.75000000  0.25000000  1
  Br  Br362  1  0.25000000  0.00000000  0.25000000  1
  Br  Br363  1  0.25000000  0.00000000  0.75000000  1
  Br  Br364  1  0.25000000  0.25000000  0.00000000  1
  Br  Br365  1  0.75000000  0.25000000  -0.00000000  1
  Br  Br366  1  0.00000000  0.75000000  0.75000000  1
  Br  Br367  1  0.00000000  0.25000000  0.75000000  1
  Br  Br368  1  0.25000000  0.50000000  0.75000000  1
  Br  Br369  1  0.25000000  0.50000000  0.25000000  1
  Br  Br370  1  0.25000000  0.75000000  0.50000000  1
  Br  Br371  1  0.75000000  0.75000000  0.50000000  1
  Br  Br372  1  0.50000000  0.25000000  0.75000000  1
  Br  Br373  1  0.50000000  0.75000000  0.75000000  1
  Br  Br374  1  0.75000000  0.00000000  0.75000000  1
  Br  Br375  1  0.75000000  0.00000000  0.25000000  1
  Br  Br376  1  0.75000000  0.25000000  0.50000000  1
  Br  Br377  1  0.25000000  0.25000000  0.50000000  1
  Br  Br378  1  0.50000000  0.75000000  0.25000000  1
  Br  Br379  1  0.50000000  0.25000000  0.25000000  1
  Br  Br380  1  0.75000000  0.50000000  0.25000000  1
  Br  Br381  1  0.75000000  0.50000000  0.75000000  1
  Br  Br382  1  0.75000000  0.75000000  0.00000000  1
  Br  Br383  1  0.25000000  0.75000000  0.00000000  1
  Li  Li384  1  0.36825297  0.82132648  0.44373987  1
  Li  Li385  1  -0.36825297  -0.82132648  0.44373987  1
  Li  Li386  1  -0.36825297  0.82132648  -0.44373987  1
  Li  Li387  1  0.36825297  -0.82132648  -0.44373987  1
  Li  Li388  1  0.44373987  0.36825297  0.82132648  1
  Li  Li389  1  0.44373987  -0.36825297  -0.82132648  1
  Li  Li390  1  -0.44373987  -0.36825297  0.82132648  1
  Li  Li391  1  -0.44373987  0.36825297  -0.82132648  1
  Li  Li392  1  0.82132648  0.44373987  0.36825297  1
  Li  Li393  1  -0.82132648  0.44373987  -0.36825297  1
  Li  Li394  1  0.82132648  -0.44373987  -0.36825297  1
  Li  Li395  1  -0.82132648  -0.44373987  0.36825297  1
  Li  Li396  1  0.82132648  0.36825297  -0.44373987  1
  Li  Li397  1  -0.82132648  -0.36825297  -0.44373987  1
  Li  Li398  1  0.82132648  -0.36825297  0.44373987  1
  Li  Li399  1  -0.82132648  0.36825297  0.44373987  1
  Li  Li400  1  0.36825297  0.44373987  -0.82132648  1
  Li  Li401  1  -0.36825297  0.44373987  0.82132648  1
  Li  Li402  1  -0.36825297  -0.44373987  -0.82132648  1
  Li  Li403  1  0.36825297  -0.44373987  0.82132648  1
  Li  Li404  1  0.44373987  0.82132648  -0.36825297  1
  Li  Li405  1  0.44373987  -0.82132648  0.36825297  1
  Li  Li406  1  -0.44373987  0.82132648  0.36825297  1
  Li  Li407  1  -0.44373987  -0.82132648  -0.36825297  1
  Li  Li408  1  -0.36825297  -0.82132648  -0.44373987  1
  Li  Li409  1  0.36825297  0.82132648  -0.44373987  1
  Li  Li410  1  0.36825297  -0.82132648  0.44373987  1
  Li  Li411  1  -0.36825297  0.82132648  0.44373987  1
  Li  Li412  1  -0.44373987  -0.36825297  -0.82132648  1
  Li  Li413  1  -0.44373987  0.36825297  0.82132648  1
  Li  Li414  1  0.44373987  0.36825297  -0.82132648  1
  Li  Li415  1  0.44373987  -0.36825297  0.82132648  1
  Li  Li416  1  -0.82132648  -0.44373987  -0.36825297  1
  Li  Li417  1  0.82132648  -0.44373987  0.36825297  1
  Li  Li418  1  -0.82132648  0.44373987  0.36825297  1
  Li  Li419  1  0.82132648  0.44373987  -0.36825297  1
  Li  Li420  1  -0.82132648  -0.36825297  0.44373987  1
  Li  Li421  1  0.82132648  0.36825297  0.44373987  1
  Li  Li422  1  -0.82132648  0.36825297  -0.44373987  1
  Li  Li423  1  0.82132648  -0.36825297  -0.44373987  1
  Li  Li424  1  -0.36825297  -0.44373987  0.82132648  1
  Li  Li425  1  0.36825297  -0.44373987  -0.82132648  1
  Li  Li426  1  0.36825297  0.44373987  0.82132648  1
  Li  Li427  1  -0.36825297  0.44373987  -0.82132648  1
  Li  Li428  1  -0.44373987  -0.82132648  0.36825297  1
  Li  Li429  1  -0.44373987  0.82132648  -0.36825297  1
  Li  Li430  1  0.44373987  -0.82132648  -0.36825297  1
  Li  Li431  1  0.44373987  0.82132648  0.36825297  1
  Li  Li432  1  0.36825297  1.32132648  0.94373987  1
  Li  Li433  1  -0.36825297  -0.32132648  0.94373987  1
  Li  Li434  1  -0.36825297  1.32132648  0.05626013  1
  Li  Li435  1  0.36825297  -0.32132648  0.05626013  1
  Li  Li436  1  0.44373987  0.86825297  1.32132648  1
  Li  Li437  1  0.44373987  0.13174703  -0.32132648  1
  Li  Li438  1  -0.44373987  0.13174703  1.32132648  1
  Li  Li439  1  -0.44373987  0.86825297  -0.32132648  1
  Li  Li440  1  0.82132648  0.94373987  0.86825297  1
  Li  Li441  1  -0.82132648  0.94373987  0.13174703  1
  Li  Li442  1  0.82132648  0.05626013  0.13174703  1
  Li  Li443  1  -0.82132648  0.05626013  0.86825297  1
  Li  Li444  1  0.82132648  0.86825297  0.05626013  1
  Li  Li445  1  -0.82132648  0.13174703  0.05626013  1
  Li  Li446  1  0.82132648  0.13174703  0.94373987  1
  Li  Li447  1  -0.82132648  0.86825297  0.94373987  1
  Li  Li448  1  0.36825297  0.94373987  -0.32132648  1
  Li  Li449  1  -0.36825297  0.94373987  1.32132648  1
  Li  Li450  1  -0.36825297  0.05626013  -0.32132648  1
  Li  Li451  1  0.36825297  0.05626013  1.32132648  1
  Li  Li452  1  0.44373987  1.32132648  0.13174703  1
  Li  Li453  1  0.44373987  -0.32132648  0.86825297  1
  Li  Li454  1  -0.44373987  1.32132648  0.86825297  1
  Li  Li455  1  -0.44373987  -0.32132648  0.13174703  1
  Li  Li456  1  -0.36825297  -0.32132648  0.05626013  1
  Li  Li457  1  0.36825297  1.32132648  0.05626013  1
  Li  Li458  1  0.36825297  -0.32132648  0.94373987  1
  Li  Li459  1  -0.36825297  1.32132648  0.94373987  1
  Li  Li460  1  -0.44373987  0.13174703  -0.32132648  1
  Li  Li461  1  -0.44373987  0.86825297  1.32132648  1
  Li  Li462  1  0.44373987  0.86825297  -0.32132648  1
  Li  Li463  1  0.44373987  0.13174703  1.32132648  1
  Li  Li464  1  -0.82132648  0.05626013  0.13174703  1
  Li  Li465  1  0.82132648  0.05626013  0.86825297  1
  Li  Li466  1  -0.82132648  0.94373987  0.86825297  1
  Li  Li467  1  0.82132648  0.94373987  0.13174703  1
  Li  Li468  1  -0.82132648  0.13174703  0.94373987  1
  Li  Li469  1  0.82132648  0.86825297  0.94373987  1
  Li  Li470  1  -0.82132648  0.86825297  0.05626013  1
  Li  Li471  1  0.82132648  0.13174703  0.05626013  1
  Li  Li472  1  -0.36825297  0.05626013  1.32132648  1
  Li  Li473  1  0.36825297  0.05626013  -0.32132648  1
  Li  Li474  1  0.36825297  0.94373987  1.32132648  1
  Li  Li475  1  -0.36825297  0.94373987  -0.32132648  1
  Li  Li476  1  -0.44373987  -0.32132648  0.86825297  1
  Li  Li477  1  -0.44373987  1.32132648  0.13174703  1
  Li  Li478  1  0.44373987  -0.32132648  0.13174703  1
  Li  Li479  1  0.44373987  1.32132648  0.86825297  1
  Li  Li480  1  0.86825297  0.82132648  0.94373987  1
  Li  Li481  1  0.13174703  -0.82132648  0.94373987  1
  Li  Li482  1  0.13174703  0.82132648  0.05626013  1
  Li  Li483  1  0.86825297  -0.82132648  0.05626013  1
  Li  Li484  1  0.94373987  0.36825297  1.32132648  1
  Li  Li485  1  0.94373987  -0.36825297  -0.32132648  1
  Li  Li486  1  0.05626013  -0.36825297  1.32132648  1
  Li  Li487  1  0.05626013  0.36825297  -0.32132648  1
  Li  Li488  1  1.32132648  0.44373987  0.86825297  1
  Li  Li489  1  -0.32132648  0.44373987  0.13174703  1
  Li  Li490  1  1.32132648  -0.44373987  0.13174703  1
  Li  Li491  1  -0.32132648  -0.44373987  0.86825297  1
  Li  Li492  1  1.32132648  0.36825297  0.05626013  1
  Li  Li493  1  -0.32132648  -0.36825297  0.05626013  1
  Li  Li494  1  1.32132648  -0.36825297  0.94373987  1
  Li  Li495  1  -0.32132648  0.36825297  0.94373987  1
  Li  Li496  1  0.86825297  0.44373987  -0.32132648  1
  Li  Li497  1  0.13174703  0.44373987  1.32132648  1
  Li  Li498  1  0.13174703  -0.44373987  -0.32132648  1
  Li  Li499  1  0.86825297  -0.44373987  1.32132648  1
  Li  Li500  1  0.94373987  0.82132648  0.13174703  1
  Li  Li501  1  0.94373987  -0.82132648  0.86825297  1
  Li  Li502  1  0.05626013  0.82132648  0.86825297  1
  Li  Li503  1  0.05626013  -0.82132648  0.13174703  1
  Li  Li504  1  0.13174703  -0.82132648  0.05626013  1
  Li  Li505  1  0.86825297  0.82132648  0.05626013  1
  Li  Li506  1  0.86825297  -0.82132648  0.94373987  1
  Li  Li507  1  0.13174703  0.82132648  0.94373987  1
  Li  Li508  1  0.05626013  -0.36825297  -0.32132648  1
  Li  Li509  1  0.05626013  0.36825297  1.32132648  1
  Li  Li510  1  0.94373987  0.36825297  -0.32132648  1
  Li  Li511  1  0.94373987  -0.36825297  1.32132648  1
  Li  Li512  1  -0.32132648  -0.44373987  0.13174703  1
  Li  Li513  1  1.32132648  -0.44373987  0.86825297  1
  Li  Li514  1  -0.32132648  0.44373987  0.86825297  1
  Li  Li515  1  1.32132648  0.44373987  0.13174703  1
  Li  Li516  1  -0.32132648  -0.36825297  0.94373987  1
  Li  Li517  1  1.32132648  0.36825297  0.94373987  1
  Li  Li518  1  -0.32132648  0.36825297  0.05626013  1
  Li  Li519  1  1.32132648  -0.36825297  0.05626013  1
  Li  Li520  1  0.13174703  -0.44373987  1.32132648  1
  Li  Li521  1  0.86825297  -0.44373987  -0.32132648  1
  Li  Li522  1  0.86825297  0.44373987  1.32132648  1
  Li  Li523  1  0.13174703  0.44373987  -0.32132648  1
  Li  Li524  1  0.05626013  -0.82132648  0.86825297  1
  Li  Li525  1  0.05626013  0.82132648  0.13174703  1
  Li  Li526  1  0.94373987  -0.82132648  0.13174703  1
  Li  Li527  1  0.94373987  0.82132648  0.86825297  1
  Li  Li528  1  0.86825297  1.32132648  0.44373987  1
  Li  Li529  1  0.13174703  -0.32132648  0.44373987  1
  Li  Li530  1  0.13174703  1.32132648  -0.44373987  1
  Li  Li531  1  0.86825297  -0.32132648  -0.44373987  1
  Li  Li532  1  0.94373987  0.86825297  0.82132648  1
  Li  Li533  1  0.94373987  0.13174703  -0.82132648  1
  Li  Li534  1  0.05626013  0.13174703  0.82132648  1
  Li  Li535  1  0.05626013  0.86825297  -0.82132648  1
  Li  Li536  1  1.32132648  0.94373987  0.36825297  1
  Li  Li537  1  -0.32132648  0.94373987  -0.36825297  1
  Li  Li538  1  1.32132648  0.05626013  -0.36825297  1
  Li  Li539  1  -0.32132648  0.05626013  0.36825297  1
  Li  Li540  1  1.32132648  0.86825297  -0.44373987  1
  Li  Li541  1  -0.32132648  0.13174703  -0.44373987  1
  Li  Li542  1  1.32132648  0.13174703  0.44373987  1
  Li  Li543  1  -0.32132648  0.86825297  0.44373987  1
  Li  Li544  1  0.86825297  0.94373987  -0.82132648  1
  Li  Li545  1  0.13174703  0.94373987  0.82132648  1
  Li  Li546  1  0.13174703  0.05626013  -0.82132648  1
  Li  Li547  1  0.86825297  0.05626013  0.82132648  1
  Li  Li548  1  0.94373987  1.32132648  -0.36825297  1
  Li  Li549  1  0.94373987  -0.32132648  0.36825297  1
  Li  Li550  1  0.05626013  1.32132648  0.36825297  1
  Li  Li551  1  0.05626013  -0.32132648  -0.36825297  1
  Li  Li552  1  0.13174703  -0.32132648  -0.44373987  1
  Li  Li553  1  0.86825297  1.32132648  -0.44373987  1
  Li  Li554  1  0.86825297  -0.32132648  0.44373987  1
  Li  Li555  1  0.13174703  1.32132648  0.44373987  1
  Li  Li556  1  0.05626013  0.13174703  -0.82132648  1
  Li  Li557  1  0.05626013  0.86825297  0.82132648  1
  Li  Li558  1  0.94373987  0.86825297  -0.82132648  1
  Li  Li559  1  0.94373987  0.13174703  0.82132648  1
  Li  Li560  1  -0.32132648  0.05626013  -0.36825297  1
  Li  Li561  1  1.32132648  0.05626013  0.36825297  1
  Li  Li562  1  -0.32132648  0.94373987  0.36825297  1
  Li  Li563  1  1.32132648  0.94373987  -0.36825297  1
  Li  Li564  1  -0.32132648  0.13174703  0.44373987  1
  Li  Li565  1  1.32132648  0.86825297  0.44373987  1
  Li  Li566  1  -0.32132648  0.86825297  -0.44373987  1
  Li  Li567  1  1.32132648  0.13174703  -0.44373987  1
  Li  Li568  1  0.13174703  0.05626013  0.82132648  1
  Li  Li569  1  0.86825297  0.05626013  -0.82132648  1
  Li  Li570  1  0.86825297  0.94373987  0.82132648  1
  Li  Li571  1  0.13174703  0.94373987  -0.82132648  1
  Li  Li572  1  0.05626013  -0.32132648  0.36825297  1
  Li  Li573  1  0.05626013  1.32132648  -0.36825297  1
  Li  Li574  1  0.94373987  -0.32132648  -0.36825297  1
  Li  Li575  1  0.94373987  1.32132648  0.36825297  1
  Li  Li576  1  0.25000000  0.25000000  0.25000000  1
  Li  Li577  1  0.25000000  0.25000000  0.75000000  1
  Li  Li578  1  0.25000000  0.75000000  0.75000000  1
  Li  Li579  1  0.25000000  0.75000000  0.25000000  1
  Li  Li580  1  0.75000000  0.25000000  0.75000000  1
  Li  Li581  1  0.75000000  0.25000000  0.25000000  1
  Li  Li582  1  0.75000000  0.75000000  0.25000000  1
  Li  Li583  1  0.75000000  0.75000000  0.75000000  1
  Li  Li584  1  0.00000000  0.73481811  0.56098128  1
  Li  Li585  1  0.00000000  0.26518189  0.56098128  1
  Li  Li586  1  0.00000000  0.73481811  0.43901872  1
  Li  Li587  1  0.00000000  0.26518189  0.43901872  1
  Li  Li588  1  0.56098128  0.00000000  0.73481811  1
  Li  Li589  1  0.56098128  0.00000000  0.26518189  1
  Li  Li590  1  0.43901872  0.00000000  0.73481811  1
  Li  Li591  1  0.43901872  0.00000000  0.26518189  1
  Li  Li592  1  0.73481811  0.56098128  0.00000000  1
  Li  Li593  1  0.26518189  0.56098128  0.00000000  1
  Li  Li594  1  0.73481811  0.43901872  0.00000000  1
  Li  Li595  1  0.26518189  0.43901872  0.00000000  1
  Li  Li596  1  0.73481811  0.00000000  0.43901872  1
  Li  Li597  1  0.26518189  0.00000000  0.43901872  1
  Li  Li598  1  0.73481811  0.00000000  0.56098128  1
  Li  Li599  1  0.26518189  0.00000000  0.56098128  1
  Li  Li600  1  0.00000000  0.56098128  0.26518189  1
  Li  Li601  1  0.00000000  0.56098128  0.73481811  1
  Li  Li602  1  0.00000000  0.43901872  0.26518189  1
  Li  Li603  1  0.00000000  0.43901872  0.73481811  1
  Li  Li604  1  0.56098128  0.73481811  0.00000000  1
  Li  Li605  1  0.56098128  0.26518189  0.00000000  1
  Li  Li606  1  0.43901872  0.73481811  0.00000000  1
  Li  Li607  1  0.43901872  0.26518189  0.00000000  1
  Li  Li608  1  0.00000000  0.23481811  0.06098128  1
  Li  Li609  1  0.00000000  0.76518189  0.06098128  1
  Li  Li610  1  0.00000000  0.23481811  0.93901872  1
  Li  Li611  1  0.00000000  0.76518189  0.93901872  1
  Li  Li612  1  0.56098128  0.50000000  0.23481811  1
  Li  Li613  1  0.56098128  0.50000000  0.76518189  1
  Li  Li614  1  0.43901872  0.50000000  0.23481811  1
  Li  Li615  1  0.43901872  0.50000000  0.76518189  1
  Li  Li616  1  0.73481811  0.06098128  0.50000000  1
  Li  Li617  1  0.26518189  0.06098128  0.50000000  1
  Li  Li618  1  0.73481811  0.93901872  0.50000000  1
  Li  Li619  1  0.26518189  0.93901872  0.50000000  1
  Li  Li620  1  0.73481811  0.50000000  0.93901872  1
  Li  Li621  1  0.26518189  0.50000000  0.93901872  1
  Li  Li622  1  0.73481811  0.50000000  0.06098128  1
  Li  Li623  1  0.26518189  0.50000000  0.06098128  1
  Li  Li624  1  0.00000000  0.06098128  0.76518189  1
  Li  Li625  1  0.00000000  0.06098128  0.23481811  1
  Li  Li626  1  0.00000000  0.93901872  0.76518189  1
  Li  Li627  1  0.00000000  0.93901872  0.23481811  1
  Li  Li628  1  0.56098128  0.23481811  0.50000000  1
  Li  Li629  1  0.56098128  0.76518189  0.50000000  1
  Li  Li630  1  0.43901872  0.23481811  0.50000000  1
  Li  Li631  1  0.43901872  0.76518189  0.50000000  1
  Li  Li632  1  0.50000000  0.73481811  0.06098128  1
  Li  Li633  1  0.50000000  0.26518189  0.06098128  1
  Li  Li634  1  0.50000000  0.73481811  0.93901872  1
  Li  Li635  1  0.50000000  0.26518189  0.93901872  1
  Li  Li636  1  0.06098128  0.00000000  0.23481811  1
  Li  Li637  1  0.06098128  0.00000000  0.76518189  1
  Li  Li638  1  0.93901872  0.00000000  0.23481811  1
  Li  Li639  1  0.93901872  0.00000000  0.76518189  1
  Li  Li640  1  0.23481811  0.56098128  0.50000000  1
  Li  Li641  1  0.76518189  0.56098128  0.50000000  1
  Li  Li642  1  0.23481811  0.43901872  0.50000000  1
  Li  Li643  1  0.76518189  0.43901872  0.50000000  1
  Li  Li644  1  0.23481811  0.00000000  0.93901872  1
  Li  Li645  1  0.76518189  0.00000000  0.93901872  1
  Li  Li646  1  0.23481811  0.00000000  0.06098128  1
  Li  Li647  1  0.76518189  0.00000000  0.06098128  1
  Li  Li648  1  0.50000000  0.56098128  0.76518189  1
  Li  Li649  1  0.50000000  0.56098128  0.23481811  1
  Li  Li650  1  0.50000000  0.43901872  0.76518189  1
  Li  Li651  1  0.50000000  0.43901872  0.23481811  1
  Li  Li652  1  0.06098128  0.73481811  0.50000000  1
  Li  Li653  1  0.06098128  0.26518189  0.50000000  1
  Li  Li654  1  0.93901872  0.73481811  0.50000000  1
  Li  Li655  1  0.93901872  0.26518189  0.50000000  1
  Li  Li656  1  0.50000000  0.23481811  0.56098128  1
  Li  Li657  1  0.50000000  0.76518189  0.56098128  1
  Li  Li658  1  0.50000000  0.23481811  0.43901872  1
  Li  Li659  1  0.50000000  0.76518189  0.43901872  1
  Li  Li660  1  0.06098128  0.50000000  0.73481811  1
  Li  Li661  1  0.06098128  0.50000000  0.26518189  1
  Li  Li662  1  0.93901872  0.50000000  0.73481811  1
  Li  Li663  1  0.93901872  0.50000000  0.26518189  1
  Li  Li664  1  0.23481811  0.06098128  -0.00000000  1
  Li  Li665  1  0.76518189  0.06098128  0.00000000  1
  Li  Li666  1  0.23481811  0.93901872  0.00000000  1
  Li  Li667  1  0.76518189  0.93901872  0.00000000  1
  Li  Li668  1  0.23481811  0.50000000  0.43901872  1
  Li  Li669  1  0.76518189  0.50000000  0.43901872  1
  Li  Li670  1  0.23481811  0.50000000  0.56098128  1
  Li  Li671  1  0.76518189  0.50000000  0.56098128  1
  Li  Li672  1  0.50000000  0.06098128  0.26518189  1
  Li  Li673  1  0.50000000  0.06098128  0.73481811  1
  Li  Li674  1  0.50000000  0.93901872  0.26518189  1
  Li  Li675  1  0.50000000  0.93901872  0.73481811  1
  Li  Li676  1  0.06098128  0.23481811  0.00000000  1
  Li  Li677  1  0.06098128  0.76518189  0.00000000  1
  Li  Li678  1  0.93901872  0.23481811  0.00000000  1
  Li  Li679  1  0.93901872  0.76518189  0.00000000  1
  Li  Li680  1  0.50000000  0.80504179  0.80504179  1
  Li  Li681  1  0.50000000  0.19495821  0.80504179  1
  Li  Li682  1  0.50000000  0.80504179  0.19495821  1
  Li  Li683  1  0.50000000  0.19495821  0.19495821  1
  Li  Li684  1  0.80504179  0.50000000  0.80504179  1
  Li  Li685  1  0.80504179  0.50000000  0.19495821  1
  Li  Li686  1  0.19495821  0.50000000  0.80504179  1
  Li  Li687  1  0.19495821  0.50000000  0.19495821  1
  Li  Li688  1  0.80504179  0.80504179  0.50000000  1
  Li  Li689  1  0.19495821  0.80504179  0.50000000  1
  Li  Li690  1  0.80504179  0.19495821  0.50000000  1
  Li  Li691  1  0.19495821  0.19495821  0.50000000  1
  Li  Li692  1  0.50000000  0.30504179  0.30504179  1
  Li  Li693  1  0.50000000  0.69495821  0.30504179  1
  Li  Li694  1  0.50000000  0.30504179  0.69495821  1
  Li  Li695  1  0.50000000  0.69495821  0.69495821  1
  Li  Li696  1  0.80504179  0.00000000  0.30504179  1
  Li  Li697  1  0.80504179  0.00000000  0.69495821  1
  Li  Li698  1  0.19495821  0.00000000  0.30504179  1
  Li  Li699  1  0.19495821  0.00000000  0.69495821  1
  Li  Li700  1  0.80504179  0.30504179  0.00000000  1
  Li  Li701  1  0.19495821  0.30504179  0.00000000  1
  Li  Li702  1  0.80504179  0.69495821  0.00000000  1
  Li  Li703  1  0.19495821  0.69495821  -0.00000000  1
  Li  Li704  1  0.00000000  0.80504179  0.30504179  1
  Li  Li705  1  0.00000000  0.19495821  0.30504179  1
  Li  Li706  1  0.00000000  0.80504179  0.69495821  1
  Li  Li707  1  0.00000000  0.19495821  0.69495821  1
  Li  Li708  1  0.30504179  0.50000000  0.30504179  1
  Li  Li709  1  0.30504179  0.50000000  0.69495821  1
  Li  Li710  1  0.69495821  0.50000000  0.30504179  1
  Li  Li711  1  0.69495821  0.50000000  0.69495821  1
  Li  Li712  1  0.30504179  0.80504179  0.00000000  1
  Li  Li713  1  0.69495821  0.80504179  0.00000000  1
  Li  Li714  1  0.30504179  0.19495821  -0.00000000  1
  Li  Li715  1  0.69495821  0.19495821  -0.00000000  1
  Li  Li716  1  0.00000000  0.30504179  0.80504179  1
  Li  Li717  1  0.00000000  0.69495821  0.80504179  1
  Li  Li718  1  0.00000000  0.30504179  0.19495821  1
  Li  Li719  1  0.00000000  0.69495821  0.19495821  1
  Li  Li720  1  0.30504179  0.00000000  0.80504179  1
  Li  Li721  1  0.30504179  0.00000000  0.19495821  1
  Li  Li722  1  0.69495821  0.00000000  0.80504179  1
  Li  Li723  1  0.69495821  0.00000000  0.19495821  1
  Li  Li724  1  0.30504179  0.30504179  0.50000000  1
  Li  Li725  1  0.69495821  0.30504179  0.50000000  1
  Li  Li726  1  0.30504179  0.69495821  0.50000000  1
  Li  Li727  1  0.69495821  0.69495821  0.50000000  1
  Li  Li728  1  0.50000000  0.50000000  0.50000000  1
  Li  Li729  1  0.50000000  0.00000000  0.00000000  1
  Li  Li730  1  0.00000000  0.50000000  0.00000000  1
  Li  Li731  1  0.00000000  0.00000000  0.50000000  1
  Li  Li732  1  0.12842062  0.12842062  0.12842062  1
  Li  Li733  1  0.87157938  0.87157938  0.12842062  1
  Li  Li734  1  0.87157938  0.12842062  0.87157938  1
  Li  Li735  1  0.12842062  0.87157938  0.87157938  1
  Li  Li736  1  0.12842062  0.12842062  0.87157938  1
  Li  Li737  1  0.87157938  0.87157938  0.87157938  1
  Li  Li738  1  0.12842062  0.87157938  0.12842062  1
  Li  Li739  1  0.87157938  0.12842062  0.12842062  1
  Li  Li740  1  0.12842062  0.62842062  0.62842062  1
  Li  Li741  1  0.87157938  0.37157938  0.62842062  1
  Li  Li742  1  0.87157938  0.62842062  0.37157938  1
  Li  Li743  1  0.12842062  0.37157938  0.37157938  1
  Li  Li744  1  0.12842062  0.62842062  0.37157938  1
  Li  Li745  1  0.87157938  0.37157938  0.37157938  1
  Li  Li746  1  0.12842062  0.37157938  0.62842062  1
  Li  Li747  1  0.87157938  0.62842062  0.62842062  1
  Li  Li748  1  0.62842062  0.12842062  0.62842062  1
  Li  Li749  1  0.37157938  0.87157938  0.62842062  1
  Li  Li750  1  0.37157938  0.12842062  0.37157938  1
  Li  Li751  1  0.62842062  0.87157938  0.37157938  1
  Li  Li752  1  0.62842062  0.12842062  0.37157938  1
  Li  Li753  1  0.37157938  0.87157938  0.37157938  1
  Li  Li754  1  0.62842062  0.87157938  0.62842062  1
  Li  Li755  1  0.37157938  0.12842062  0.62842062  1
  Li  Li756  1  0.62842062  0.62842062  0.12842062  1
  Li  Li757  1  0.37157938  0.37157938  0.12842062  1
  Li  Li758  1  0.37157938  0.62842062  0.87157938  1
  Li  Li759  1  0.62842062  0.37157938  0.87157938  1
  Li  Li760  1  0.62842062  0.62842062  0.87157938  1
  Li  Li761  1  0.37157938  0.37157938  0.87157938  1
  Li  Li762  1  0.62842062  0.37157938  0.12842062  1
  Li  Li763  1  0.37157938  0.62842062  0.12842062  1
  Li  Li764  1  0.00000000  0.00000000  0.00000000  1
  Li  Li765  1  0.00000000  0.50000000  0.50000000  1
  Li  Li766  1  0.50000000  0.00000000  0.50000000  1
  Li  Li767  1  0.50000000  0.50000000  0.00000000  1
