# generated using pymatgen
data_Li4SnS4
_symmetry_space_group_name_H-M   'P 1'
_cell_length_a   26.53651248
_cell_length_b   26.53651248
_cell_length_c   26.53651248
_cell_angle_alpha   90.00000000
_cell_angle_beta   90.00000000
_cell_angle_gamma   90.00000000
_symmetry_Int_Tables_number   1
_chemical_formula_structural   Li4SnS4
_chemical_formula_sum   'Li384 Sn96 S384'
_cell_volume   18686.65370717
_cell_formula_units_Z   96
loop_
 _symmetry_equiv_pos_site_id
 _symmetry_equiv_pos_as_xyz
  1  'x, y, z'
loop_
 _atom_site_type_symbol
 _atom_site_label
 _atom_site_symmetry_multiplicity
 _atom_site_fract_x
 _atom_site_fract_y
 _atom_site_fract_z
 _atom_site_occupancy
  Li  Li0  1  0.74408303  0.74408303  0.18962144  1
  Li  Li1  1  0.00591697  0.50591697  0.68962144  1
  Li  Li2  1  0.50591697  0.24408303  0.56037856  1
  Li  Li3  1  0.24408303  0.00591697  0.06037856  1
  Li  Li4  1  0.18962144  0.74408303  0.74408303  1
  Li  Li5  1  0.68962144  0.00591697  0.50591697  1
  Li  Li6  1  0.56037856  0.50591697  0.24408303  1
  Li  Li7  1  0.06037856  0.24408303  0.00591697  1
  Li  Li8  1  0.74408303  0.18962144  0.74408303  1
  Li  Li9  1  0.50591697  0.68962144  0.00591697  1
  Li  Li10  1  0.24408303  0.56037856  0.50591697  1
  Li  Li11  1  0.00591697  0.06037856  0.24408303  1
  Li  Li12  1  0.49408303  0.99408303  0.31037856  1
  Li  Li13  1  0.25591697  0.25591697  0.81037856  1
  Li  Li14  1  0.99408303  0.75591697  0.93962144  1
  Li  Li15  1  0.75591697  0.49408303  0.43962144  1
  Li  Li16  1  0.49408303  0.43962144  0.75591697  1
  Li  Li17  1  0.75591697  0.93962144  0.99408303  1
  Li  Li18  1  0.25591697  0.81037856  0.25591697  1
  Li  Li19  1  0.99408303  0.31037856  0.49408303  1
  Li  Li20  1  0.93962144  0.99408303  0.75591697  1
  Li  Li21  1  0.43962144  0.75591697  0.49408303  1
  Li  Li22  1  0.31037856  0.49408303  0.99408303  1
  Li  Li23  1  0.81037856  0.25591697  0.25591697  1
  Li  Li24  1  0.74408303  0.24408303  0.68962144  1
  Li  Li25  1  0.00591697  0.00591697  0.18962144  1
  Li  Li26  1  0.50591697  0.74408303  0.06037856  1
  Li  Li27  1  0.24408303  0.50591697  0.56037856  1
  Li  Li28  1  0.18962144  0.24408303  0.24408303  1
  Li  Li29  1  0.68962144  0.50591697  0.00591697  1
  Li  Li30  1  0.56037856  0.00591697  0.74408303  1
  Li  Li31  1  0.06037856  0.74408303  0.50591697  1
  Li  Li32  1  0.74408303  0.68962144  0.24408303  1
  Li  Li33  1  0.50591697  0.18962144  0.50591697  1
  Li  Li34  1  0.24408303  0.06037856  0.00591697  1
  Li  Li35  1  0.00591697  0.56037856  0.74408303  1
  Li  Li36  1  0.49408303  0.49408303  0.81037856  1
  Li  Li37  1  0.25591697  0.75591697  0.31037856  1
  Li  Li38  1  0.99408303  0.25591697  0.43962144  1
  Li  Li39  1  0.75591697  0.99408303  0.93962144  1
  Li  Li40  1  0.49408303  0.93962144  0.25591697  1
  Li  Li41  1  0.75591697  0.43962144  0.49408303  1
  Li  Li42  1  0.25591697  0.31037856  0.75591697  1
  Li  Li43  1  0.99408303  0.81037856  0.99408303  1
  Li  Li44  1  0.93962144  0.49408303  0.25591697  1
  Li  Li45  1  0.43962144  0.25591697  0.99408303  1
  Li  Li46  1  0.31037856  0.99408303  0.49408303  1
  Li  Li47  1  0.81037856  0.75591697  0.75591697  1
  Li  Li48  1  0.24408303  0.74408303  0.68962144  1
  Li  Li49  1  0.50591697  0.50591697  0.18962144  1
  Li  Li50  1  0.00591697  0.24408303  0.06037856  1
  Li  Li51  1  0.74408303  0.00591697  0.56037856  1
  Li  Li52  1  0.68962144  0.74408303  0.24408303  1
  Li  Li53  1  0.18962144  0.00591697  0.00591697  1
  Li  Li54  1  0.06037856  0.50591697  0.74408303  1
  Li  Li55  1  0.56037856  0.24408303  0.50591697  1
  Li  Li56  1  0.24408303  0.18962144  0.24408303  1
  Li  Li57  1  0.00591697  0.68962144  0.50591697  1
  Li  Li58  1  0.74408303  0.56037856  0.00591697  1
  Li  Li59  1  0.50591697  0.06037856  0.74408303  1
  Li  Li60  1  0.99408303  0.99408303  0.81037856  1
  Li  Li61  1  0.75591697  0.25591697  0.31037856  1
  Li  Li62  1  0.49408303  0.75591697  0.43962144  1
  Li  Li63  1  0.25591697  0.49408303  0.93962144  1
  Li  Li64  1  0.99408303  0.43962144  0.25591697  1
  Li  Li65  1  0.25591697  0.93962144  0.49408303  1
  Li  Li66  1  0.75591697  0.81037856  0.75591697  1
  Li  Li67  1  0.49408303  0.31037856  0.99408303  1
  Li  Li68  1  0.43962144  0.99408303  0.25591697  1
  Li  Li69  1  0.93962144  0.75591697  0.99408303  1
  Li  Li70  1  0.81037856  0.49408303  0.49408303  1
  Li  Li71  1  0.31037856  0.25591697  0.75591697  1
  Li  Li72  1  0.24408303  0.24408303  0.18962144  1
  Li  Li73  1  0.50591697  0.00591697  0.68962144  1
  Li  Li74  1  0.00591697  0.74408303  0.56037856  1
  Li  Li75  1  0.74408303  0.50591697  0.06037856  1
  Li  Li76  1  0.68962144  0.24408303  0.74408303  1
  Li  Li77  1  0.18962144  0.50591697  0.50591697  1
  Li  Li78  1  0.06037856  0.00591697  0.24408303  1
  Li  Li79  1  0.56037856  0.74408303  0.00591697  1
  Li  Li80  1  0.24408303  0.68962144  0.74408303  1
  Li  Li81  1  0.00591697  0.18962144  0.00591697  1
  Li  Li82  1  0.74408303  0.06037856  0.50591697  1
  Li  Li83  1  0.50591697  0.56037856  0.24408303  1
  Li  Li84  1  0.99408303  0.49408303  0.31037856  1
  Li  Li85  1  0.75591697  0.75591697  0.81037856  1
  Li  Li86  1  0.49408303  0.25591697  0.93962144  1
  Li  Li87  1  0.25591697  0.99408303  0.43962144  1
  Li  Li88  1  0.99408303  0.93962144  0.75591697  1
  Li  Li89  1  0.25591697  0.43962144  0.99408303  1
  Li  Li90  1  0.75591697  0.31037856  0.25591697  1
  Li  Li91  1  0.49408303  0.81037856  0.49408303  1
  Li  Li92  1  0.43962144  0.49408303  0.75591697  1
  Li  Li93  1  0.93962144  0.25591697  0.49408303  1
  Li  Li94  1  0.81037856  0.99408303  0.99408303  1
  Li  Li95  1  0.31037856  0.75591697  0.25591697  1
  Li  Li96  1  0.15416688  0.15416688  0.29826602  1
  Li  Li97  1  0.59583312  0.09583312  0.79826602  1
  Li  Li98  1  0.09583312  0.65416688  0.45173398  1
  Li  Li99  1  0.65416688  0.59583312  0.95173398  1
  Li  Li100  1  0.29826602  0.15416688  0.15416688  1
  Li  Li101  1  0.79826602  0.59583312  0.09583312  1
  Li  Li102  1  0.45173398  0.09583312  0.65416688  1
  Li  Li103  1  0.95173398  0.65416688  0.59583312  1
  Li  Li104  1  0.15416688  0.29826602  0.15416688  1
  Li  Li105  1  0.09583312  0.79826602  0.59583312  1
  Li  Li106  1  0.65416688  0.45173398  0.09583312  1
  Li  Li107  1  0.59583312  0.95173398  0.65416688  1
  Li  Li108  1  0.90416688  0.40416688  0.20173398  1
  Li  Li109  1  0.84583312  0.84583312  0.70173398  1
  Li  Li110  1  0.40416688  0.34583312  0.04826602  1
  Li  Li111  1  0.34583312  0.90416688  0.54826602  1
  Li  Li112  1  0.90416688  0.54826602  0.34583312  1
  Li  Li113  1  0.34583312  0.04826602  0.40416688  1
  Li  Li114  1  0.84583312  0.70173398  0.84583312  1
  Li  Li115  1  0.40416688  0.20173398  0.90416688  1
  Li  Li116  1  0.04826602  0.40416688  0.34583312  1
  Li  Li117  1  0.54826602  0.34583312  0.90416688  1
  Li  Li118  1  0.20173398  0.90416688  0.40416688  1
  Li  Li119  1  0.70173398  0.84583312  0.84583312  1
  Li  Li120  1  0.15416688  0.65416688  0.79826602  1
  Li  Li121  1  0.59583312  0.59583312  0.29826602  1
  Li  Li122  1  0.09583312  0.15416688  0.95173398  1
  Li  Li123  1  0.65416688  0.09583312  0.45173398  1
  Li  Li124  1  0.29826602  0.65416688  0.65416688  1
  Li  Li125  1  0.79826602  0.09583312  0.59583312  1
  Li  Li126  1  0.45173398  0.59583312  0.15416688  1
  Li  Li127  1  0.95173398  0.15416688  0.09583312  1
  Li  Li128  1  0.15416688  0.79826602  0.65416688  1
  Li  Li129  1  0.09583312  0.29826602  0.09583312  1
  Li  Li130  1  0.65416688  0.95173398  0.59583312  1
  Li  Li131  1  0.59583312  0.45173398  0.15416688  1
  Li  Li132  1  0.90416688  0.90416688  0.70173398  1
  Li  Li133  1  0.84583312  0.34583312  0.20173398  1
  Li  Li134  1  0.40416688  0.84583312  0.54826602  1
  Li  Li135  1  0.34583312  0.40416688  0.04826602  1
  Li  Li136  1  0.90416688  0.04826602  0.84583312  1
  Li  Li137  1  0.34583312  0.54826602  0.90416688  1
  Li  Li138  1  0.84583312  0.20173398  0.34583312  1
  Li  Li139  1  0.40416688  0.70173398  0.40416688  1
  Li  Li140  1  0.04826602  0.90416688  0.84583312  1
  Li  Li141  1  0.54826602  0.84583312  0.40416688  1
  Li  Li142  1  0.20173398  0.40416688  0.90416688  1
  Li  Li143  1  0.70173398  0.34583312  0.34583312  1
  Li  Li144  1  0.65416688  0.15416688  0.79826602  1
  Li  Li145  1  0.09583312  0.09583312  0.29826602  1
  Li  Li146  1  0.59583312  0.65416688  0.95173398  1
  Li  Li147  1  0.15416688  0.59583312  0.45173398  1
  Li  Li148  1  0.79826602  0.15416688  0.65416688  1
  Li  Li149  1  0.29826602  0.59583312  0.59583312  1
  Li  Li150  1  0.95173398  0.09583312  0.15416688  1
  Li  Li151  1  0.45173398  0.65416688  0.09583312  1
  Li  Li152  1  0.65416688  0.29826602  0.65416688  1
  Li  Li153  1  0.59583312  0.79826602  0.09583312  1
  Li  Li154  1  0.15416688  0.45173398  0.59583312  1
  Li  Li155  1  0.09583312  0.95173398  0.15416688  1
  Li  Li156  1  0.40416688  0.40416688  0.70173398  1
  Li  Li157  1  0.34583312  0.84583312  0.20173398  1
  Li  Li158  1  0.90416688  0.34583312  0.54826602  1
  Li  Li159  1  0.84583312  0.90416688  0.04826602  1
  Li  Li160  1  0.40416688  0.54826602  0.84583312  1
  Li  Li161  1  0.84583312  0.04826602  0.90416688  1
  Li  Li162  1  0.34583312  0.70173398  0.34583312  1
  Li  Li163  1  0.90416688  0.20173398  0.40416688  1
  Li  Li164  1  0.54826602  0.40416688  0.84583312  1
  Li  Li165  1  0.04826602  0.34583312  0.40416688  1
  Li  Li166  1  0.70173398  0.90416688  0.90416688  1
  Li  Li167  1  0.20173398  0.84583312  0.34583312  1
  Li  Li168  1  0.65416688  0.65416688  0.29826602  1
  Li  Li169  1  0.09583312  0.59583312  0.79826602  1
  Li  Li170  1  0.59583312  0.15416688  0.45173398  1
  Li  Li171  1  0.15416688  0.09583312  0.95173398  1
  Li  Li172  1  0.79826602  0.65416688  0.15416688  1
  Li  Li173  1  0.29826602  0.09583312  0.09583312  1
  Li  Li174  1  0.95173398  0.59583312  0.65416688  1
  Li  Li175  1  0.45173398  0.15416688  0.59583312  1
  Li  Li176  1  0.65416688  0.79826602  0.15416688  1
  Li  Li177  1  0.59583312  0.29826602  0.59583312  1
  Li  Li178  1  0.15416688  0.95173398  0.09583312  1
  Li  Li179  1  0.09583312  0.45173398  0.65416688  1
  Li  Li180  1  0.40416688  0.90416688  0.20173398  1
  Li  Li181  1  0.34583312  0.34583312  0.70173398  1
  Li  Li182  1  0.90416688  0.84583312  0.04826602  1
  Li  Li183  1  0.84583312  0.40416688  0.54826602  1
  Li  Li184  1  0.40416688  0.04826602  0.34583312  1
  Li  Li185  1  0.84583312  0.54826602  0.40416688  1
  Li  Li186  1  0.34583312  0.20173398  0.84583312  1
  Li  Li187  1  0.90416688  0.70173398  0.90416688  1
  Li  Li188  1  0.54826602  0.90416688  0.34583312  1
  Li  Li189  1  0.04826602  0.84583312  0.90416688  1
  Li  Li190  1  0.70173398  0.40416688  0.40416688  1
  Li  Li191  1  0.20173398  0.34583312  0.84583312  1
  Li  Li192  1  0.33083593  0.02703596  0.17893322  1
  Li  Li193  1  0.41916407  0.22296404  0.67893322  1
  Li  Li194  1  0.91916407  0.52703596  0.57106678  1
  Li  Li195  1  0.83083593  0.72296404  0.07106678  1
  Li  Li196  1  0.17893322  0.33083593  0.02703596  1
  Li  Li197  1  0.67893322  0.41916407  0.22296404  1
  Li  Li198  1  0.57106678  0.91916407  0.52703596  1
  Li  Li199  1  0.07106678  0.83083593  0.72296404  1
  Li  Li200  1  0.02703596  0.17893322  0.33083593  1
  Li  Li201  1  0.22296404  0.67893322  0.41916407  1
  Li  Li202  1  0.52703596  0.57106678  0.91916407  1
  Li  Li203  1  0.72296404  0.07106678  0.83083593  1
  Li  Li204  1  0.77703596  0.58083593  0.32106678  1
  Li  Li205  1  0.97296404  0.66916407  0.82106678  1
  Li  Li206  1  0.27703596  0.16916407  0.92893322  1
  Li  Li207  1  0.47296404  0.08083593  0.42893322  1
  Li  Li208  1  0.08083593  0.42893322  0.47296404  1
  Li  Li209  1  0.16916407  0.92893322  0.27703596  1
  Li  Li210  1  0.66916407  0.82106678  0.97296404  1
  Li  Li211  1  0.58083593  0.32106678  0.77703596  1
  Li  Li212  1  0.92893322  0.27703596  0.16916407  1
  Li  Li213  1  0.42893322  0.47296404  0.08083593  1
  Li  Li214  1  0.32106678  0.77703596  0.58083593  1
  Li  Li215  1  0.82106678  0.97296404  0.66916407  1
  Li  Li216  1  0.66916407  0.97296404  0.82106678  1
  Li  Li217  1  0.58083593  0.77703596  0.32106678  1
  Li  Li218  1  0.08083593  0.47296404  0.42893322  1
  Li  Li219  1  0.16916407  0.27703596  0.92893322  1
  Li  Li220  1  0.82106678  0.66916407  0.97296404  1
  Li  Li221  1  0.32106678  0.58083593  0.77703596  1
  Li  Li222  1  0.42893322  0.08083593  0.47296404  1
  Li  Li223  1  0.92893322  0.16916407  0.27703596  1
  Li  Li224  1  0.97296404  0.82106678  0.66916407  1
  Li  Li225  1  0.77703596  0.32106678  0.58083593  1
  Li  Li226  1  0.47296404  0.42893322  0.08083593  1
  Li  Li227  1  0.27703596  0.92893322  0.16916407  1
  Li  Li228  1  0.22296404  0.41916407  0.67893322  1
  Li  Li229  1  0.02703596  0.33083593  0.17893322  1
  Li  Li230  1  0.72296404  0.83083593  0.07106678  1
  Li  Li231  1  0.52703596  0.91916407  0.57106678  1
  Li  Li232  1  0.91916407  0.57106678  0.52703596  1
  Li  Li233  1  0.83083593  0.07106678  0.72296404  1
  Li  Li234  1  0.33083593  0.17893322  0.02703596  1
  Li  Li235  1  0.41916407  0.67893322  0.22296404  1
  Li  Li236  1  0.07106678  0.72296404  0.83083593  1
  Li  Li237  1  0.57106678  0.52703596  0.91916407  1
  Li  Li238  1  0.67893322  0.22296404  0.41916407  1
  Li  Li239  1  0.17893322  0.02703596  0.33083593  1
  Li  Li240  1  0.33083593  0.52703596  0.67893322  1
  Li  Li241  1  0.41916407  0.72296404  0.17893322  1
  Li  Li242  1  0.91916407  0.02703596  0.07106678  1
  Li  Li243  1  0.83083593  0.22296404  0.57106678  1
  Li  Li244  1  0.17893322  0.83083593  0.52703596  1
  Li  Li245  1  0.67893322  0.91916407  0.72296404  1
  Li  Li246  1  0.57106678  0.41916407  0.02703596  1
  Li  Li247  1  0.07106678  0.33083593  0.22296404  1
  Li  Li248  1  0.02703596  0.67893322  0.83083593  1
  Li  Li249  1  0.22296404  0.17893322  0.91916407  1
  Li  Li250  1  0.52703596  0.07106678  0.41916407  1
  Li  Li251  1  0.72296404  0.57106678  0.33083593  1
  Li  Li252  1  0.77703596  0.08083593  0.82106678  1
  Li  Li253  1  0.97296404  0.16916407  0.32106678  1
  Li  Li254  1  0.27703596  0.66916407  0.42893322  1
  Li  Li255  1  0.47296404  0.58083593  0.92893322  1
  Li  Li256  1  0.08083593  0.92893322  0.97296404  1
  Li  Li257  1  0.16916407  0.42893322  0.77703596  1
  Li  Li258  1  0.66916407  0.32106678  0.47296404  1
  Li  Li259  1  0.58083593  0.82106678  0.27703596  1
  Li  Li260  1  0.92893322  0.77703596  0.66916407  1
  Li  Li261  1  0.42893322  0.97296404  0.58083593  1
  Li  Li262  1  0.32106678  0.27703596  0.08083593  1
  Li  Li263  1  0.82106678  0.47296404  0.16916407  1
  Li  Li264  1  0.66916407  0.47296404  0.32106678  1
  Li  Li265  1  0.58083593  0.27703596  0.82106678  1
  Li  Li266  1  0.08083593  0.97296404  0.92893322  1
  Li  Li267  1  0.16916407  0.77703596  0.42893322  1
  Li  Li268  1  0.82106678  0.16916407  0.47296404  1
  Li  Li269  1  0.32106678  0.08083593  0.27703596  1
  Li  Li270  1  0.42893322  0.58083593  0.97296404  1
  Li  Li271  1  0.92893322  0.66916407  0.77703596  1
  Li  Li272  1  0.97296404  0.32106678  0.16916407  1
  Li  Li273  1  0.77703596  0.82106678  0.08083593  1
  Li  Li274  1  0.47296404  0.92893322  0.58083593  1
  Li  Li275  1  0.27703596  0.42893322  0.66916407  1
  Li  Li276  1  0.22296404  0.91916407  0.17893322  1
  Li  Li277  1  0.02703596  0.83083593  0.67893322  1
  Li  Li278  1  0.72296404  0.33083593  0.57106678  1
  Li  Li279  1  0.52703596  0.41916407  0.07106678  1
  Li  Li280  1  0.91916407  0.07106678  0.02703596  1
  Li  Li281  1  0.83083593  0.57106678  0.22296404  1
  Li  Li282  1  0.33083593  0.67893322  0.52703596  1
  Li  Li283  1  0.41916407  0.17893322  0.72296404  1
  Li  Li284  1  0.07106678  0.22296404  0.33083593  1
  Li  Li285  1  0.57106678  0.02703596  0.41916407  1
  Li  Li286  1  0.67893322  0.72296404  0.91916407  1
  Li  Li287  1  0.17893322  0.52703596  0.83083593  1
  Li  Li288  1  0.83083593  0.02703596  0.67893322  1
  Li  Li289  1  0.91916407  0.22296404  0.17893322  1
  Li  Li290  1  0.41916407  0.52703596  0.07106678  1
  Li  Li291  1  0.33083593  0.72296404  0.57106678  1
  Li  Li292  1  0.67893322  0.33083593  0.52703596  1
  Li  Li293  1  0.17893322  0.41916407  0.72296404  1
  Li  Li294  1  0.07106678  0.91916407  0.02703596  1
  Li  Li295  1  0.57106678  0.83083593  0.22296404  1
  Li  Li296  1  0.52703596  0.17893322  0.83083593  1
  Li  Li297  1  0.72296404  0.67893322  0.91916407  1
  Li  Li298  1  0.02703596  0.57106678  0.41916407  1
  Li  Li299  1  0.22296404  0.07106678  0.33083593  1
  Li  Li300  1  0.27703596  0.58083593  0.82106678  1
  Li  Li301  1  0.47296404  0.66916407  0.32106678  1
  Li  Li302  1  0.77703596  0.16916407  0.42893322  1
  Li  Li303  1  0.97296404  0.08083593  0.92893322  1
  Li  Li304  1  0.58083593  0.42893322  0.97296404  1
  Li  Li305  1  0.66916407  0.92893322  0.77703596  1
  Li  Li306  1  0.16916407  0.82106678  0.47296404  1
  Li  Li307  1  0.08083593  0.32106678  0.27703596  1
  Li  Li308  1  0.42893322  0.27703596  0.66916407  1
  Li  Li309  1  0.92893322  0.47296404  0.58083593  1
  Li  Li310  1  0.82106678  0.77703596  0.08083593  1
  Li  Li311  1  0.32106678  0.97296404  0.16916407  1
  Li  Li312  1  0.16916407  0.97296404  0.32106678  1
  Li  Li313  1  0.08083593  0.77703596  0.82106678  1
  Li  Li314  1  0.58083593  0.47296404  0.92893322  1
  Li  Li315  1  0.66916407  0.27703596  0.42893322  1
  Li  Li316  1  0.32106678  0.66916407  0.47296404  1
  Li  Li317  1  0.82106678  0.58083593  0.27703596  1
  Li  Li318  1  0.92893322  0.08083593  0.97296404  1
  Li  Li319  1  0.42893322  0.16916407  0.77703596  1
  Li  Li320  1  0.47296404  0.82106678  0.16916407  1
  Li  Li321  1  0.27703596  0.32106678  0.08083593  1
  Li  Li322  1  0.97296404  0.42893322  0.58083593  1
  Li  Li323  1  0.77703596  0.92893322  0.66916407  1
  Li  Li324  1  0.72296404  0.41916407  0.17893322  1
  Li  Li325  1  0.52703596  0.33083593  0.67893322  1
  Li  Li326  1  0.22296404  0.83083593  0.57106678  1
  Li  Li327  1  0.02703596  0.91916407  0.07106678  1
  Li  Li328  1  0.41916407  0.57106678  0.02703596  1
  Li  Li329  1  0.33083593  0.07106678  0.22296404  1
  Li  Li330  1  0.83083593  0.17893322  0.52703596  1
  Li  Li331  1  0.91916407  0.67893322  0.72296404  1
  Li  Li332  1  0.57106678  0.72296404  0.33083593  1
  Li  Li333  1  0.07106678  0.52703596  0.41916407  1
  Li  Li334  1  0.17893322  0.22296404  0.91916407  1
  Li  Li335  1  0.67893322  0.02703596  0.83083593  1
  Li  Li336  1  0.83083593  0.52703596  0.17893322  1
  Li  Li337  1  0.91916407  0.72296404  0.67893322  1
  Li  Li338  1  0.41916407  0.02703596  0.57106678  1
  Li  Li339  1  0.33083593  0.22296404  0.07106678  1
  Li  Li340  1  0.67893322  0.83083593  0.02703596  1
  Li  Li341  1  0.17893322  0.91916407  0.22296404  1
  Li  Li342  1  0.07106678  0.41916407  0.52703596  1
  Li  Li343  1  0.57106678  0.33083593  0.72296404  1
  Li  Li344  1  0.52703596  0.67893322  0.33083593  1
  Li  Li345  1  0.72296404  0.17893322  0.41916407  1
  Li  Li346  1  0.02703596  0.07106678  0.91916407  1
  Li  Li347  1  0.22296404  0.57106678  0.83083593  1
  Li  Li348  1  0.27703596  0.08083593  0.32106678  1
  Li  Li349  1  0.47296404  0.16916407  0.82106678  1
  Li  Li350  1  0.77703596  0.66916407  0.92893322  1
  Li  Li351  1  0.97296404  0.58083593  0.42893322  1
  Li  Li352  1  0.58083593  0.92893322  0.47296404  1
  Li  Li353  1  0.66916407  0.42893322  0.27703596  1
  Li  Li354  1  0.16916407  0.32106678  0.97296404  1
  Li  Li355  1  0.08083593  0.82106678  0.77703596  1
  Li  Li356  1  0.42893322  0.77703596  0.16916407  1
  Li  Li357  1  0.92893322  0.97296404  0.08083593  1
  Li  Li358  1  0.82106678  0.27703596  0.58083593  1
  Li  Li359  1  0.32106678  0.47296404  0.66916407  1
  Li  Li360  1  0.16916407  0.47296404  0.82106678  1
  Li  Li361  1  0.08083593  0.27703596  0.32106678  1
  Li  Li362  1  0.58083593  0.97296404  0.42893322  1
  Li  Li363  1  0.66916407  0.77703596  0.92893322  1
  Li  Li364  1  0.32106678  0.16916407  0.97296404  1
  Li  Li365  1  0.82106678  0.08083593  0.77703596  1
  Li  Li366  1  0.92893322  0.58083593  0.47296404  1
  Li  Li367  1  0.42893322  0.66916407  0.27703596  1
  Li  Li368  1  0.47296404  0.32106678  0.66916407  1
  Li  Li369  1  0.27703596  0.82106678  0.58083593  1
  Li  Li370  1  0.97296404  0.92893322  0.08083593  1
  Li  Li371  1  0.77703596  0.42893322  0.16916407  1
  Li  Li372  1  0.72296404  0.91916407  0.67893322  1
  Li  Li373  1  0.52703596  0.83083593  0.17893322  1
  Li  Li374  1  0.22296404  0.33083593  0.07106678  1
  Li  Li375  1  0.02703596  0.41916407  0.57106678  1
  Li  Li376  1  0.41916407  0.07106678  0.52703596  1
  Li  Li377  1  0.33083593  0.57106678  0.72296404  1
  Li  Li378  1  0.83083593  0.67893322  0.02703596  1
  Li  Li379  1  0.91916407  0.17893322  0.22296404  1
  Li  Li380  1  0.57106678  0.22296404  0.83083593  1
  Li  Li381  1  0.07106678  0.02703596  0.91916407  1
  Li  Li382  1  0.17893322  0.72296404  0.41916407  1
  Li  Li383  1  0.67893322  0.52703596  0.33083593  1
  S  S384  1  0.46286633  0.46286633  0.37593726  1
  S  S385  1  0.28713367  0.78713367  0.87593726  1
  S  S386  1  0.78713367  0.96286633  0.37406274  1
  S  S387  1  0.96286633  0.28713367  0.87406274  1
  S  S388  1  0.37593726  0.46286633  0.46286633  1
  S  S389  1  0.87593726  0.28713367  0.78713367  1
  S  S390  1  0.37406274  0.78713367  0.96286633  1
  S  S391  1  0.87406274  0.96286633  0.28713367  1
  S  S392  1  0.46286633  0.37593726  0.46286633  1
  S  S393  1  0.78713367  0.87593726  0.28713367  1
  S  S394  1  0.96286633  0.37406274  0.78713367  1
  S  S395  1  0.28713367  0.87406274  0.96286633  1
  S  S396  1  0.21286633  0.71286633  0.12406274  1
  S  S397  1  0.53713367  0.53713367  0.62406274  1
  S  S398  1  0.71286633  0.03713367  0.12593726  1
  S  S399  1  0.03713367  0.21286633  0.62593726  1
  S  S400  1  0.21286633  0.62593726  0.03713367  1
  S  S401  1  0.03713367  0.12593726  0.71286633  1
  S  S402  1  0.53713367  0.62406274  0.53713367  1
  S  S403  1  0.71286633  0.12406274  0.21286633  1
  S  S404  1  0.12593726  0.71286633  0.03713367  1
  S  S405  1  0.62593726  0.03713367  0.21286633  1
  S  S406  1  0.12406274  0.21286633  0.71286633  1
  S  S407  1  0.62406274  0.53713367  0.53713367  1
  S  S408  1  0.46286633  0.96286633  0.87593726  1
  S  S409  1  0.28713367  0.28713367  0.37593726  1
  S  S410  1  0.78713367  0.46286633  0.87406274  1
  S  S411  1  0.96286633  0.78713367  0.37406274  1
  S  S412  1  0.37593726  0.96286633  0.96286633  1
  S  S413  1  0.87593726  0.78713367  0.28713367  1
  S  S414  1  0.37406274  0.28713367  0.46286633  1
  S  S415  1  0.87406274  0.46286633  0.78713367  1
  S  S416  1  0.46286633  0.87593726  0.96286633  1
  S  S417  1  0.78713367  0.37593726  0.78713367  1
  S  S418  1  0.96286633  0.87406274  0.28713367  1
  S  S419  1  0.28713367  0.37406274  0.46286633  1
  S  S420  1  0.21286633  0.21286633  0.62406274  1
  S  S421  1  0.53713367  0.03713367  0.12406274  1
  S  S422  1  0.71286633  0.53713367  0.62593726  1
  S  S423  1  0.03713367  0.71286633  0.12593726  1
  S  S424  1  0.21286633  0.12593726  0.53713367  1
  S  S425  1  0.03713367  0.62593726  0.21286633  1
  S  S426  1  0.53713367  0.12406274  0.03713367  1
  S  S427  1  0.71286633  0.62406274  0.71286633  1
  S  S428  1  0.12593726  0.21286633  0.53713367  1
  S  S429  1  0.62593726  0.53713367  0.71286633  1
  S  S430  1  0.12406274  0.71286633  0.21286633  1
  S  S431  1  0.62406274  0.03713367  0.03713367  1
  S  S432  1  0.96286633  0.46286633  0.87593726  1
  S  S433  1  0.78713367  0.78713367  0.37593726  1
  S  S434  1  0.28713367  0.96286633  0.87406274  1
  S  S435  1  0.46286633  0.28713367  0.37406274  1
  S  S436  1  0.87593726  0.46286633  0.96286633  1
  S  S437  1  0.37593726  0.28713367  0.28713367  1
  S  S438  1  0.87406274  0.78713367  0.46286633  1
  S  S439  1  0.37406274  0.96286633  0.78713367  1
  S  S440  1  0.96286633  0.37593726  0.96286633  1
  S  S441  1  0.28713367  0.87593726  0.78713367  1
  S  S442  1  0.46286633  0.37406274  0.28713367  1
  S  S443  1  0.78713367  0.87406274  0.46286633  1
  S  S444  1  0.71286633  0.71286633  0.62406274  1
  S  S445  1  0.03713367  0.53713367  0.12406274  1
  S  S446  1  0.21286633  0.03713367  0.62593726  1
  S  S447  1  0.53713367  0.21286633  0.12593726  1
  S  S448  1  0.71286633  0.62593726  0.53713367  1
  S  S449  1  0.53713367  0.12593726  0.21286633  1
  S  S450  1  0.03713367  0.62406274  0.03713367  1
  S  S451  1  0.21286633  0.12406274  0.71286633  1
  S  S452  1  0.62593726  0.71286633  0.53713367  1
  S  S453  1  0.12593726  0.03713367  0.71286633  1
  S  S454  1  0.62406274  0.21286633  0.21286633  1
  S  S455  1  0.12406274  0.53713367  0.03713367  1
  S  S456  1  0.96286633  0.96286633  0.37593726  1
  S  S457  1  0.78713367  0.28713367  0.87593726  1
  S  S458  1  0.28713367  0.46286633  0.37406274  1
  S  S459  1  0.46286633  0.78713367  0.87406274  1
  S  S460  1  0.87593726  0.96286633  0.46286633  1
  S  S461  1  0.37593726  0.78713367  0.78713367  1
  S  S462  1  0.87406274  0.28713367  0.96286633  1
  S  S463  1  0.37406274  0.46286633  0.28713367  1
  S  S464  1  0.96286633  0.87593726  0.46286633  1
  S  S465  1  0.28713367  0.37593726  0.28713367  1
  S  S466  1  0.46286633  0.87406274  0.78713367  1
  S  S467  1  0.78713367  0.37406274  0.96286633  1
  S  S468  1  0.71286633  0.21286633  0.12406274  1
  S  S469  1  0.03713367  0.03713367  0.62406274  1
  S  S470  1  0.21286633  0.53713367  0.12593726  1
  S  S471  1  0.53713367  0.71286633  0.62593726  1
  S  S472  1  0.71286633  0.12593726  0.03713367  1
  S  S473  1  0.53713367  0.62593726  0.71286633  1
  S  S474  1  0.03713367  0.12406274  0.53713367  1
  S  S475  1  0.21286633  0.62406274  0.21286633  1
  S  S476  1  0.62593726  0.21286633  0.03713367  1
  S  S477  1  0.12593726  0.53713367  0.21286633  1
  S  S478  1  0.62406274  0.71286633  0.71286633  1
  S  S479  1  0.12406274  0.03713367  0.53713367  1
  S  S480  1  0.37500000  0.37500000  0.37500000  1
  S  S481  1  0.12500000  0.62500000  0.12500000  1
  S  S482  1  0.37500000  0.87500000  0.87500000  1
  S  S483  1  0.12500000  0.12500000  0.62500000  1
  S  S484  1  0.87500000  0.37500000  0.87500000  1
  S  S485  1  0.62500000  0.62500000  0.62500000  1
  S  S486  1  0.87500000  0.87500000  0.37500000  1
  S  S487  1  0.62500000  0.12500000  0.12500000  1
  S  S488  1  0.06045669  0.12500000  0.12500000  1
  S  S489  1  0.68954331  0.12500000  0.62500000  1
  S  S490  1  0.12500000  0.06045669  0.12500000  1
  S  S491  1  0.62500000  0.68954331  0.12500000  1
  S  S492  1  0.12500000  0.12500000  0.06045669  1
  S  S493  1  0.12500000  0.62500000  0.68954331  1
  S  S494  1  0.87500000  0.31045669  0.37500000  1
  S  S495  1  0.87500000  0.93954331  0.87500000  1
  S  S496  1  0.81045669  0.37500000  0.37500000  1
  S  S497  1  0.43954331  0.87500000  0.37500000  1
  S  S498  1  0.87500000  0.37500000  0.43954331  1
  S  S499  1  0.37500000  0.37500000  0.81045669  1
  S  S500  1  0.06045669  0.62500000  0.62500000  1
  S  S501  1  0.68954331  0.62500000  0.12500000  1
  S  S502  1  0.12500000  0.56045669  0.62500000  1
  S  S503  1  0.62500000  0.18954331  0.62500000  1
  S  S504  1  0.12500000  0.62500000  0.56045669  1
  S  S505  1  0.12500000  0.12500000  0.18954331  1
  S  S506  1  0.87500000  0.81045669  0.87500000  1
  S  S507  1  0.87500000  0.43954331  0.37500000  1
  S  S508  1  0.81045669  0.87500000  0.87500000  1
  S  S509  1  0.43954331  0.37500000  0.87500000  1
  S  S510  1  0.87500000  0.87500000  0.93954331  1
  S  S511  1  0.37500000  0.87500000  0.31045669  1
  S  S512  1  0.56045669  0.12500000  0.62500000  1
  S  S513  1  0.18954331  0.12500000  0.12500000  1
  S  S514  1  0.62500000  0.06045669  0.62500000  1
  S  S515  1  0.12500000  0.68954331  0.62500000  1
  S  S516  1  0.62500000  0.12500000  0.56045669  1
  S  S517  1  0.62500000  0.62500000  0.18954331  1
  S  S518  1  0.37500000  0.31045669  0.87500000  1
  S  S519  1  0.37500000  0.93954331  0.37500000  1
  S  S520  1  0.31045669  0.37500000  0.87500000  1
  S  S521  1  0.93954331  0.87500000  0.87500000  1
  S  S522  1  0.37500000  0.37500000  0.93954331  1
  S  S523  1  0.87500000  0.37500000  0.31045669  1
  S  S524  1  0.56045669  0.62500000  0.12500000  1
  S  S525  1  0.18954331  0.62500000  0.62500000  1
  S  S526  1  0.62500000  0.56045669  0.12500000  1
  S  S527  1  0.12500000  0.18954331  0.12500000  1
  S  S528  1  0.62500000  0.62500000  0.06045669  1
  S  S529  1  0.62500000  0.12500000  0.68954331  1
  S  S530  1  0.37500000  0.81045669  0.37500000  1
  S  S531  1  0.37500000  0.43954331  0.87500000  1
  S  S532  1  0.31045669  0.87500000  0.37500000  1
  S  S533  1  0.93954331  0.37500000  0.37500000  1
  S  S534  1  0.37500000  0.87500000  0.43954331  1
  S  S535  1  0.87500000  0.87500000  0.81045669  1
  S  S536  1  0.02532870  0.31593853  0.60039158  1
  S  S537  1  0.72467130  -0.06593853  1.10039158  1
  S  S538  1  0.22467130  0.81593853  0.14960842  1
  S  S539  1  0.52532870  0.43406147  -0.35039158  1
  S  S540  1  0.60039158  0.02532870  0.31593853  1
  S  S541  1  1.10039158  0.72467130  -0.06593853  1
  S  S542  1  0.14960842  0.22467130  0.81593853  1
  S  S543  1  -0.35039158  0.52532870  0.43406147  1
  S  S544  1  0.31593853  0.60039158  0.02532870  1
  S  S545  1  -0.06593853  1.10039158  0.72467130  1
  S  S546  1  0.81593853  0.14960842  0.22467130  1
  S  S547  1  0.43406147  -0.35039158  0.52532870  1
  S  S548  1  1.06593853  0.27532870  -0.10039158  1
  S  S549  1  -0.31593853  -0.02532870  -0.60039158  1
  S  S550  1  0.56593853  0.47467130  1.35039158  1
  S  S551  1  0.18406147  0.77532870  0.85039158  1
  S  S552  1  0.77532870  0.85039158  0.18406147  1
  S  S553  1  0.47467130  1.35039158  0.56593853  1
  S  S554  1  -0.02532870  -0.60039158  -0.31593853  1
  S  S555  1  0.27532870  -0.10039158  1.06593853  1
  S  S556  1  1.35039158  0.56593853  0.47467130  1
  S  S557  1  0.85039158  0.18406147  0.77532870  1
  S  S558  1  -0.10039158  1.06593853  0.27532870  1
  S  S559  1  -0.60039158  -0.31593853  -0.02532870  1
  S  S560  1  -0.02532870  -0.31593853  -0.60039158  1
  S  S561  1  0.27532870  1.06593853  -0.10039158  1
  S  S562  1  0.77532870  0.18406147  0.85039158  1
  S  S563  1  0.47467130  0.56593853  1.35039158  1
  S  S564  1  -0.60039158  -0.02532870  -0.31593853  1
  S  S565  1  -0.10039158  0.27532870  1.06593853  1
  S  S566  1  0.85039158  0.77532870  0.18406147  1
  S  S567  1  1.35039158  0.47467130  0.56593853  1
  S  S568  1  -0.31593853  -0.60039158  -0.02532870  1
  S  S569  1  1.06593853  -0.10039158  0.27532870  1
  S  S570  1  0.18406147  0.85039158  0.77532870  1
  S  S571  1  0.56593853  1.35039158  0.47467130  1
  S  S572  1  -0.06593853  0.72467130  1.10039158  1
  S  S573  1  0.31593853  0.02532870  0.60039158  1
  S  S574  1  0.43406147  0.52532870  -0.35039158  1
  S  S575  1  0.81593853  0.22467130  0.14960842  1
  S  S576  1  0.22467130  0.14960842  0.81593853  1
  S  S577  1  0.52532870  -0.35039158  0.43406147  1
  S  S578  1  0.02532870  0.60039158  0.31593853  1
  S  S579  1  0.72467130  1.10039158  -0.06593853  1
  S  S580  1  -0.35039158  0.43406147  0.52532870  1
  S  S581  1  0.14960842  0.81593853  0.22467130  1
  S  S582  1  1.10039158  -0.06593853  0.72467130  1
  S  S583  1  0.60039158  0.31593853  0.02532870  1
  S  S584  1  0.02532870  0.81593853  1.10039158  1
  S  S585  1  0.72467130  0.43406147  1.60039158  1
  S  S586  1  0.22467130  1.31593853  0.64960842  1
  S  S587  1  0.52532870  0.93406147  0.14960842  1
  S  S588  1  0.60039158  0.52532870  0.81593853  1
  S  S589  1  1.10039158  1.22467130  0.43406147  1
  S  S590  1  0.14960842  0.72467130  1.31593853  1
  S  S591  1  -0.35039158  1.02532870  0.93406147  1
  S  S592  1  0.31593853  1.10039158  0.52532870  1
  S  S593  1  -0.06593853  1.60039158  1.22467130  1
  S  S594  1  0.81593853  0.64960842  0.72467130  1
  S  S595  1  0.43406147  0.14960842  1.02532870  1
  S  S596  1  1.06593853  0.77532870  0.39960842  1
  S  S597  1  -0.31593853  0.47467130  -0.10039158  1
  S  S598  1  0.56593853  0.97467130  1.85039158  1
  S  S599  1  0.18406147  1.27532870  1.35039158  1
  S  S600  1  0.77532870  1.35039158  0.68406147  1
  S  S601  1  0.47467130  1.85039158  1.06593853  1
  S  S602  1  -0.02532870  -0.10039158  0.18406147  1
  S  S603  1  0.27532870  0.39960842  1.56593853  1
  S  S604  1  1.35039158  1.06593853  0.97467130  1
  S  S605  1  0.85039158  0.68406147  1.27532870  1
  S  S606  1  -0.10039158  1.56593853  0.77532870  1
  S  S607  1  -0.60039158  0.18406147  0.47467130  1
  S  S608  1  -0.02532870  0.18406147  -0.10039158  1
  S  S609  1  0.27532870  1.56593853  0.39960842  1
  S  S610  1  0.77532870  0.68406147  1.35039158  1
  S  S611  1  0.47467130  1.06593853  1.85039158  1
  S  S612  1  -0.60039158  0.47467130  0.18406147  1
  S  S613  1  -0.10039158  0.77532870  1.56593853  1
  S  S614  1  0.85039158  1.27532870  0.68406147  1
  S  S615  1  1.35039158  0.97467130  1.06593853  1
  S  S616  1  -0.31593853  -0.10039158  0.47467130  1
  S  S617  1  1.06593853  0.39960842  0.77532870  1
  S  S618  1  0.18406147  1.35039158  1.27532870  1
  S  S619  1  0.56593853  1.85039158  0.97467130  1
  S  S620  1  -0.06593853  1.22467130  1.60039158  1
  S  S621  1  0.31593853  0.52532870  1.10039158  1
  S  S622  1  0.43406147  1.02532870  0.14960842  1
  S  S623  1  0.81593853  0.72467130  0.64960842  1
  S  S624  1  0.22467130  0.64960842  1.31593853  1
  S  S625  1  0.52532870  0.14960842  0.93406147  1
  S  S626  1  0.02532870  1.10039158  0.81593853  1
  S  S627  1  0.72467130  1.60039158  0.43406147  1
  S  S628  1  -0.35039158  0.93406147  1.02532870  1
  S  S629  1  0.14960842  1.31593853  0.72467130  1
  S  S630  1  1.10039158  0.43406147  1.22467130  1
  S  S631  1  0.60039158  0.81593853  0.52532870  1
  S  S632  1  0.52532870  0.31593853  1.10039158  1
  S  S633  1  1.22467130  -0.06593853  1.60039158  1
  S  S634  1  0.72467130  0.81593853  0.64960842  1
  S  S635  1  1.02532870  0.43406147  0.14960842  1
  S  S636  1  1.10039158  0.02532870  0.81593853  1
  S  S637  1  1.60039158  0.72467130  0.43406147  1
  S  S638  1  0.64960842  0.22467130  1.31593853  1
  S  S639  1  0.14960842  0.52532870  0.93406147  1
  S  S640  1  0.81593853  0.60039158  0.52532870  1
  S  S641  1  0.43406147  1.10039158  1.22467130  1
  S  S642  1  1.31593853  0.14960842  0.72467130  1
  S  S643  1  0.93406147  -0.35039158  1.02532870  1
  S  S644  1  1.56593853  0.27532870  0.39960842  1
  S  S645  1  0.18406147  -0.02532870  -0.10039158  1
  S  S646  1  1.06593853  0.47467130  1.85039158  1
  S  S647  1  0.68406147  0.77532870  1.35039158  1
  S  S648  1  1.27532870  0.85039158  0.68406147  1
  S  S649  1  0.97467130  1.35039158  1.06593853  1
  S  S650  1  0.47467130  -0.60039158  0.18406147  1
  S  S651  1  0.77532870  -0.10039158  1.56593853  1
  S  S652  1  1.85039158  0.56593853  0.97467130  1
  S  S653  1  1.35039158  0.18406147  1.27532870  1
  S  S654  1  0.39960842  1.06593853  0.77532870  1
  S  S655  1  -0.10039158  -0.31593853  0.47467130  1
  S  S656  1  0.47467130  -0.31593853  -0.10039158  1
  S  S657  1  0.77532870  1.06593853  0.39960842  1
  S  S658  1  1.27532870  0.18406147  1.35039158  1
  S  S659  1  0.97467130  0.56593853  1.85039158  1
  S  S660  1  -0.10039158  -0.02532870  0.18406147  1
  S  S661  1  0.39960842  0.27532870  1.56593853  1
  S  S662  1  1.35039158  0.77532870  0.68406147  1
  S  S663  1  1.85039158  0.47467130  1.06593853  1
  S  S664  1  0.18406147  -0.60039158  0.47467130  1
  S  S665  1  1.56593853  -0.10039158  0.77532870  1
  S  S666  1  0.68406147  0.85039158  1.27532870  1
  S  S667  1  1.06593853  1.35039158  0.97467130  1
  S  S668  1  0.43406147  0.72467130  1.60039158  1
  S  S669  1  0.81593853  0.02532870  1.10039158  1
  S  S670  1  0.93406147  0.52532870  0.14960842  1
  S  S671  1  1.31593853  0.22467130  0.64960842  1
  S  S672  1  0.72467130  0.14960842  1.31593853  1
  S  S673  1  1.02532870  -0.35039158  0.93406147  1
  S  S674  1  0.52532870  0.60039158  0.81593853  1
  S  S675  1  1.22467130  1.10039158  0.43406147  1
  S  S676  1  0.14960842  0.43406147  1.02532870  1
  S  S677  1  0.64960842  0.81593853  0.72467130  1
  S  S678  1  1.60039158  -0.06593853  1.22467130  1
  S  S679  1  1.10039158  0.31593853  0.52532870  1
  S  S680  1  0.52532870  0.81593853  0.60039158  1
  S  S681  1  1.22467130  0.43406147  1.10039158  1
  S  S682  1  0.72467130  1.31593853  0.14960842  1
  S  S683  1  1.02532870  0.93406147  -0.35039158  1
  S  S684  1  1.10039158  0.52532870  0.31593853  1
  S  S685  1  1.60039158  1.22467130  -0.06593853  1
  S  S686  1  0.64960842  0.72467130  0.81593853  1
  S  S687  1  0.14960842  1.02532870  0.43406147  1
  S  S688  1  0.81593853  1.10039158  0.02532870  1
  S  S689  1  0.43406147  1.60039158  0.72467130  1
  S  S690  1  1.31593853  0.64960842  0.22467130  1
  S  S691  1  0.93406147  0.14960842  0.52532870  1
  S  S692  1  1.56593853  0.77532870  -0.10039158  1
  S  S693  1  0.18406147  0.47467130  -0.60039158  1
  S  S694  1  1.06593853  0.97467130  1.35039158  1
  S  S695  1  0.68406147  1.27532870  0.85039158  1
  S  S696  1  1.27532870  1.35039158  0.18406147  1
  S  S697  1  0.97467130  1.85039158  0.56593853  1
  S  S698  1  0.47467130  -0.10039158  -0.31593853  1
  S  S699  1  0.77532870  0.39960842  1.06593853  1
  S  S700  1  1.85039158  1.06593853  0.47467130  1
  S  S701  1  1.35039158  0.68406147  0.77532870  1
  S  S702  1  0.39960842  1.56593853  0.27532870  1
  S  S703  1  -0.10039158  0.18406147  -0.02532870  1
  S  S704  1  0.47467130  0.18406147  -0.60039158  1
  S  S705  1  0.77532870  1.56593853  -0.10039158  1
  S  S706  1  1.27532870  0.68406147  0.85039158  1
  S  S707  1  0.97467130  1.06593853  1.35039158  1
  S  S708  1  -0.10039158  0.47467130  -0.31593853  1
  S  S709  1  0.39960842  0.77532870  1.06593853  1
  S  S710  1  1.35039158  1.27532870  0.18406147  1
  S  S711  1  1.85039158  0.97467130  0.56593853  1
  S  S712  1  0.18406147  -0.10039158  -0.02532870  1
  S  S713  1  1.56593853  0.39960842  0.27532870  1
  S  S714  1  0.68406147  1.35039158  0.77532870  1
  S  S715  1  1.06593853  1.85039158  0.47467130  1
  S  S716  1  0.43406147  1.22467130  1.10039158  1
  S  S717  1  0.81593853  0.52532870  0.60039158  1
  S  S718  1  0.93406147  1.02532870  -0.35039158  1
  S  S719  1  1.31593853  0.72467130  0.14960842  1
  S  S720  1  0.72467130  0.64960842  0.81593853  1
  S  S721  1  1.02532870  0.14960842  0.43406147  1
  S  S722  1  0.52532870  1.10039158  0.31593853  1
  S  S723  1  1.22467130  1.60039158  -0.06593853  1
  S  S724  1  0.14960842  0.93406147  0.52532870  1
  S  S725  1  0.64960842  1.31593853  0.22467130  1
  S  S726  1  1.60039158  0.43406147  0.72467130  1
  S  S727  1  1.10039158  0.81593853  0.02532870  1
  S  S728  1  0.26386029  0.26386029  0.26386029  1
  S  S729  1  0.48613971  0.98613971  0.76386029  1
  S  S730  1  0.98613971  0.76386029  0.48613971  1
  S  S731  1  0.76386029  0.48613971  0.98613971  1
  S  S732  1  0.01386029  0.51386029  0.23613971  1
  S  S733  1  0.73613971  0.73613971  0.73613971  1
  S  S734  1  0.51386029  0.23613971  0.01386029  1
  S  S735  1  0.23613971  0.01386029  0.51386029  1
  S  S736  1  0.26386029  0.76386029  0.76386029  1
  S  S737  1  0.48613971  0.48613971  0.26386029  1
  S  S738  1  0.98613971  0.26386029  0.98613971  1
  S  S739  1  0.76386029  0.98613971  0.48613971  1
  S  S740  1  0.01386029  0.01386029  0.73613971  1
  S  S741  1  0.73613971  0.23613971  0.23613971  1
  S  S742  1  0.51386029  0.73613971  0.51386029  1
  S  S743  1  0.23613971  0.51386029  0.01386029  1
  S  S744  1  0.76386029  0.26386029  0.76386029  1
  S  S745  1  0.98613971  0.98613971  0.26386029  1
  S  S746  1  0.48613971  0.76386029  0.98613971  1
  S  S747  1  0.26386029  0.48613971  0.48613971  1
  S  S748  1  0.51386029  0.51386029  0.73613971  1
  S  S749  1  0.23613971  0.73613971  0.23613971  1
  S  S750  1  0.01386029  0.23613971  0.51386029  1
  S  S751  1  0.73613971  0.01386029  0.01386029  1
  S  S752  1  0.76386029  0.76386029  0.26386029  1
  S  S753  1  0.98613971  0.48613971  0.76386029  1
  S  S754  1  0.48613971  0.26386029  0.48613971  1
  S  S755  1  0.26386029  0.98613971  0.98613971  1
  S  S756  1  0.51386029  0.01386029  0.23613971  1
  S  S757  1  0.23613971  0.23613971  0.73613971  1
  S  S758  1  0.01386029  0.73613971  0.01386029  1
  S  S759  1  0.73613971  0.51386029  0.51386029  1
  S  S760  1  0.12500000  0.12500000  0.12500000  1
  S  S761  1  0.87500000  0.37500000  0.37500000  1
  S  S762  1  0.12500000  0.62500000  0.62500000  1
  S  S763  1  0.87500000  0.87500000  0.87500000  1
  S  S764  1  0.62500000  0.12500000  0.62500000  1
  S  S765  1  0.37500000  0.37500000  0.87500000  1
  S  S766  1  0.62500000  0.62500000  0.12500000  1
  S  S767  1  0.37500000  0.87500000  0.37500000  1
  Sn  Sn768  1  0.53690904  0.53690904  0.53690904  1
  Sn  Sn769  1  0.21309096  0.71309096  0.03690904  1
  Sn  Sn770  1  0.71309096  0.03690904  0.21309096  1
  Sn  Sn771  1  0.03690904  0.21309096  0.71309096  1
  Sn  Sn772  1  0.28690904  0.78690904  0.96309096  1
  Sn  Sn773  1  0.46309096  0.46309096  0.46309096  1
  Sn  Sn774  1  0.78690904  0.96309096  0.28690904  1
  Sn  Sn775  1  0.96309096  0.28690904  0.78690904  1
  Sn  Sn776  1  0.53690904  0.03690904  0.03690904  1
  Sn  Sn777  1  0.21309096  0.21309096  0.53690904  1
  Sn  Sn778  1  0.71309096  0.53690904  0.71309096  1
  Sn  Sn779  1  0.03690904  0.71309096  0.21309096  1
  Sn  Sn780  1  0.28690904  0.28690904  0.46309096  1
  Sn  Sn781  1  0.46309096  0.96309096  0.96309096  1
  Sn  Sn782  1  0.78690904  0.46309096  0.78690904  1
  Sn  Sn783  1  0.96309096  0.78690904  0.28690904  1
  Sn  Sn784  1  0.03690904  0.53690904  0.03690904  1
  Sn  Sn785  1  0.71309096  0.71309096  0.53690904  1
  Sn  Sn786  1  0.21309096  0.03690904  0.71309096  1
  Sn  Sn787  1  0.53690904  0.21309096  0.21309096  1
  Sn  Sn788  1  0.78690904  0.78690904  0.46309096  1
  Sn  Sn789  1  0.96309096  0.46309096  0.96309096  1
  Sn  Sn790  1  0.28690904  0.96309096  0.78690904  1
  Sn  Sn791  1  0.46309096  0.28690904  0.28690904  1
  Sn  Sn792  1  0.03690904  0.03690904  0.53690904  1
  Sn  Sn793  1  0.71309096  0.21309096  0.03690904  1
  Sn  Sn794  1  0.21309096  0.53690904  0.21309096  1
  Sn  Sn795  1  0.53690904  0.71309096  0.71309096  1
  Sn  Sn796  1  0.78690904  0.28690904  0.96309096  1
  Sn  Sn797  1  0.96309096  0.96309096  0.46309096  1
  Sn  Sn798  1  0.28690904  0.46309096  0.28690904  1
  Sn  Sn799  1  0.46309096  0.78690904  0.78690904  1
  Sn  Sn800  1  0.26817394  0.12500000  0.12500000  1
  Sn  Sn801  1  0.48182606  0.12500000  0.62500000  1
  Sn  Sn802  1  0.12500000  0.26817394  0.12500000  1
  Sn  Sn803  1  0.62500000  0.48182606  0.12500000  1
  Sn  Sn804  1  0.12500000  0.12500000  0.26817394  1
  Sn  Sn805  1  0.12500000  0.62500000  0.48182606  1
  Sn  Sn806  1  0.87500000  0.51817394  0.37500000  1
  Sn  Sn807  1  0.87500000  0.73182606  0.87500000  1
  Sn  Sn808  1  0.01817394  0.37500000  0.37500000  1
  Sn  Sn809  1  0.23182606  0.87500000  0.37500000  1
  Sn  Sn810  1  0.87500000  0.37500000  0.23182606  1
  Sn  Sn811  1  0.37500000  0.37500000  0.01817394  1
  Sn  Sn812  1  0.26817394  0.62500000  0.62500000  1
  Sn  Sn813  1  0.48182606  0.62500000  0.12500000  1
  Sn  Sn814  1  0.12500000  0.76817394  0.62500000  1
  Sn  Sn815  1  0.62500000  0.98182606  0.62500000  1
  Sn  Sn816  1  0.12500000  0.62500000  0.76817394  1
  Sn  Sn817  1  0.12500000  0.12500000  0.98182606  1
  Sn  Sn818  1  0.87500000  0.01817394  0.87500000  1
  Sn  Sn819  1  0.87500000  0.23182606  0.37500000  1
  Sn  Sn820  1  0.01817394  0.87500000  0.87500000  1
  Sn  Sn821  1  0.23182606  0.37500000  0.87500000  1
  Sn  Sn822  1  0.87500000  0.87500000  0.73182606  1
  Sn  Sn823  1  0.37500000  0.87500000  0.51817394  1
  Sn  Sn824  1  0.76817394  0.12500000  0.62500000  1
  Sn  Sn825  1  0.98182606  0.12500000  0.12500000  1
  Sn  Sn826  1  0.62500000  0.26817394  0.62500000  1
  Sn  Sn827  1  0.12500000  0.48182606  0.62500000  1
  Sn  Sn828  1  0.62500000  0.12500000  0.76817394  1
  Sn  Sn829  1  0.62500000  0.62500000  0.98182606  1
  Sn  Sn830  1  0.37500000  0.51817394  0.87500000  1
  Sn  Sn831  1  0.37500000  0.73182606  0.37500000  1
  Sn  Sn832  1  0.51817394  0.37500000  0.87500000  1
  Sn  Sn833  1  0.73182606  0.87500000  0.87500000  1
  Sn  Sn834  1  0.37500000  0.37500000  0.73182606  1
  Sn  Sn835  1  0.87500000  0.37500000  0.51817394  1
  Sn  Sn836  1  0.76817394  0.62500000  0.12500000  1
  Sn  Sn837  1  0.98182606  0.62500000  0.62500000  1
  Sn  Sn838  1  0.62500000  0.76817394  0.12500000  1
  Sn  Sn839  1  0.12500000  0.98182606  0.12500000  1
  Sn  Sn840  1  0.62500000  0.62500000  0.26817394  1
  Sn  Sn841  1  0.62500000  0.12500000  0.48182606  1
  Sn  Sn842  1  0.37500000  0.01817394  0.37500000  1
  Sn  Sn843  1  0.37500000  0.23182606  0.87500000  1
  Sn  Sn844  1  0.51817394  0.87500000  0.37500000  1
  Sn  Sn845  1  0.73182606  0.37500000  0.37500000  1
  Sn  Sn846  1  0.37500000  0.87500000  0.23182606  1
  Sn  Sn847  1  0.87500000  0.87500000  0.01817394  1
  Sn  Sn848  1  0.50000000  0.50000000  0.50000000  1
  Sn  Sn849  1  0.25000000  0.75000000  0.00000000  1
  Sn  Sn850  1  0.75000000  0.00000000  0.25000000  1
  Sn  Sn851  1  0.00000000  0.25000000  0.75000000  1
  Sn  Sn852  1  0.50000000  0.00000000  0.00000000  1
  Sn  Sn853  1  0.25000000  0.25000000  0.50000000  1
  Sn  Sn854  1  0.75000000  0.50000000  0.75000000  1
  Sn  Sn855  1  0.00000000  0.75000000  0.25000000  1
  Sn  Sn856  1  0.00000000  0.50000000  0.00000000  1
  Sn  Sn857  1  0.75000000  0.75000000  0.50000000  1
  Sn  Sn858  1  0.25000000  0.00000000  0.75000000  1
  Sn  Sn859  1  0.50000000  0.25000000  0.25000000  1
  Sn  Sn860  1  0.00000000  0.00000000  0.50000000  1
  Sn  Sn861  1  0.75000000  0.25000000  0.00000000  1
  Sn  Sn862  1  0.25000000  0.50000000  0.25000000  1
  Sn  Sn863  1  0.50000000  0.75000000  0.75000000  1
