# generated using pymatgen
data_NaSrCaClF4
_symmetry_space_group_name_H-M   'P 1'
_cell_length_a   25.37395592
_cell_length_b   25.37395592
_cell_length_c   25.37395592
_cell_angle_alpha   90.00000000
_cell_angle_beta   90.00000000
_cell_angle_gamma   90.00000000
_symmetry_Int_Tables_number   1
_chemical_formula_structural   NaSrCaClF4
_chemical_formula_sum   'Na96 Sr96 Ca96 Cl96 F384'
_cell_volume   16336.70786692
_cell_formula_units_Z   96
loop_
 _symmetry_equiv_pos_site_id
 _symmetry_equiv_pos_as_xyz
  1  'x, y, z'
loop_
 _atom_site_type_symbol
 _atom_site_label
 _atom_site_symmetry_multiplicity
 _atom_site_fract_x
 _atom_site_fract_y
 _atom_site_fract_z
 _atom_site_occupancy
  Ca  Ca0  1  0.08196468  0.78323405  0.71052828  1
  Ca  Ca1  1  0.41803532  0.21676595  0.21052828  1
  Ca  Ca2  1  0.91803532  0.28323405  0.78947172  1
  Ca  Ca3  1  0.58196468  0.71676595  0.28947172  1
  Ca  Ca4  1  0.71052828  0.08196468  0.78323405  1
  Ca  Ca5  1  0.21052828  0.41803532  0.21676595  1
  Ca  Ca6  1  0.78947172  0.91803532  0.28323405  1
  Ca  Ca7  1  0.28947172  0.58196468  0.71676595  1
  Ca  Ca8  1  0.78323405  0.71052828  0.08196468  1
  Ca  Ca9  1  0.21676595  0.21052828  0.41803532  1
  Ca  Ca10  1  0.28323405  0.78947172  0.91803532  1
  Ca  Ca11  1  0.71676595  0.28947172  0.58196468  1
  Ca  Ca12  1  0.53323405  0.33196468  0.53947172  1
  Ca  Ca13  1  0.96676595  0.66803532  0.03947172  1
  Ca  Ca14  1  0.03323405  0.16803532  0.46052828  1
  Ca  Ca15  1  0.46676595  0.83196468  0.96052828  1
  Ca  Ca16  1  0.83196468  0.96052828  0.46676595  1
  Ca  Ca17  1  0.16803532  0.46052828  0.03323405  1
  Ca  Ca18  1  0.66803532  0.03947172  0.96676595  1
  Ca  Ca19  1  0.33196468  0.53947172  0.53323405  1
  Ca  Ca20  1  0.46052828  0.03323405  0.16803532  1
  Ca  Ca21  1  0.96052828  0.46676595  0.83196468  1
  Ca  Ca22  1  0.53947172  0.53323405  0.33196468  1
  Ca  Ca23  1  0.03947172  0.96676595  0.66803532  1
  Ca  Ca24  1  0.91803532  0.21676595  0.28947172  1
  Ca  Ca25  1  0.58196468  0.78323405  0.78947172  1
  Ca  Ca26  1  0.08196468  0.71676595  0.21052828  1
  Ca  Ca27  1  0.41803532  0.28323405  0.71052828  1
  Ca  Ca28  1  0.28947172  0.91803532  0.21676595  1
  Ca  Ca29  1  0.78947172  0.58196468  0.78323405  1
  Ca  Ca30  1  0.21052828  0.08196468  0.71676595  1
  Ca  Ca31  1  0.71052828  0.41803532  0.28323405  1
  Ca  Ca32  1  0.21676595  0.28947172  0.91803532  1
  Ca  Ca33  1  0.78323405  0.78947172  0.58196468  1
  Ca  Ca34  1  0.71676595  0.21052828  0.08196468  1
  Ca  Ca35  1  0.28323405  0.71052828  0.41803532  1
  Ca  Ca36  1  0.46676595  0.66803532  0.46052828  1
  Ca  Ca37  1  0.03323405  0.33196468  0.96052828  1
  Ca  Ca38  1  0.96676595  0.83196468  0.53947172  1
  Ca  Ca39  1  0.53323405  0.16803532  0.03947172  1
  Ca  Ca40  1  0.16803532  0.03947172  0.53323405  1
  Ca  Ca41  1  0.83196468  0.53947172  0.96676595  1
  Ca  Ca42  1  0.33196468  0.96052828  0.03323405  1
  Ca  Ca43  1  0.66803532  0.46052828  0.46676595  1
  Ca  Ca44  1  0.53947172  0.96676595  0.83196468  1
  Ca  Ca45  1  0.03947172  0.53323405  0.16803532  1
  Ca  Ca46  1  0.46052828  0.46676595  0.66803532  1
  Ca  Ca47  1  0.96052828  0.03323405  0.33196468  1
  Ca  Ca48  1  0.58196468  0.28323405  0.21052828  1
  Ca  Ca49  1  0.91803532  0.71676595  0.71052828  1
  Ca  Ca50  1  0.41803532  0.78323405  0.28947172  1
  Ca  Ca51  1  0.08196468  0.21676595  0.78947172  1
  Ca  Ca52  1  0.21052828  0.58196468  0.28323405  1
  Ca  Ca53  1  0.71052828  0.91803532  0.71676595  1
  Ca  Ca54  1  0.28947172  0.41803532  0.78323405  1
  Ca  Ca55  1  0.78947172  0.08196468  0.21676595  1
  Ca  Ca56  1  0.28323405  0.21052828  0.58196468  1
  Ca  Ca57  1  0.71676595  0.71052828  0.91803532  1
  Ca  Ca58  1  0.78323405  0.28947172  0.41803532  1
  Ca  Ca59  1  0.21676595  0.78947172  0.08196468  1
  Ca  Ca60  1  0.03323405  0.83196468  0.03947172  1
  Ca  Ca61  1  0.46676595  0.16803532  0.53947172  1
  Ca  Ca62  1  0.53323405  0.66803532  0.96052828  1
  Ca  Ca63  1  0.96676595  0.33196468  0.46052828  1
  Ca  Ca64  1  0.33196468  0.46052828  0.96676595  1
  Ca  Ca65  1  0.66803532  0.96052828  0.53323405  1
  Ca  Ca66  1  0.16803532  0.53947172  0.46676595  1
  Ca  Ca67  1  0.83196468  0.03947172  0.03323405  1
  Ca  Ca68  1  0.96052828  0.53323405  0.66803532  1
  Ca  Ca69  1  0.46052828  0.96676595  0.33196468  1
  Ca  Ca70  1  0.03947172  0.03323405  0.83196468  1
  Ca  Ca71  1  0.53947172  0.46676595  0.16803532  1
  Ca  Ca72  1  0.41803532  0.71676595  0.78947172  1
  Ca  Ca73  1  0.08196468  0.28323405  0.28947172  1
  Ca  Ca74  1  0.58196468  0.21676595  0.71052828  1
  Ca  Ca75  1  0.91803532  0.78323405  0.21052828  1
  Ca  Ca76  1  0.78947172  0.41803532  0.71676595  1
  Ca  Ca77  1  0.28947172  0.08196468  0.28323405  1
  Ca  Ca78  1  0.71052828  0.58196468  0.21676595  1
  Ca  Ca79  1  0.21052828  0.91803532  0.78323405  1
  Ca  Ca80  1  0.71676595  0.78947172  0.41803532  1
  Ca  Ca81  1  0.28323405  0.28947172  0.08196468  1
  Ca  Ca82  1  0.21676595  0.71052828  0.58196468  1
  Ca  Ca83  1  0.78323405  0.21052828  0.91803532  1
  Ca  Ca84  1  0.96676595  0.16803532  0.96052828  1
  Ca  Ca85  1  0.53323405  0.83196468  0.46052828  1
  Ca  Ca86  1  0.46676595  0.33196468  0.03947172  1
  Ca  Ca87  1  0.03323405  0.66803532  0.53947172  1
  Ca  Ca88  1  0.66803532  0.53947172  0.03323405  1
  Ca  Ca89  1  0.33196468  0.03947172  0.46676595  1
  Ca  Ca90  1  0.83196468  0.46052828  0.53323405  1
  Ca  Ca91  1  0.16803532  0.96052828  0.96676595  1
  Ca  Ca92  1  0.03947172  0.46676595  0.33196468  1
  Ca  Ca93  1  0.53947172  0.03323405  0.66803532  1
  Ca  Ca94  1  0.96052828  0.96676595  0.16803532  1
  Ca  Ca95  1  0.46052828  0.53323405  0.83196468  1
  Cl  Cl96  1  0.82459669  0.78956935  0.83023951  1
  Cl  Cl97  1  -0.32459669  -0.78956935  1.33023951  1
  Cl  Cl98  1  -0.82459669  1.28956935  -0.33023951  1
  Cl  Cl99  1  1.32459669  -0.28956935  -0.83023951  1
  Cl  Cl100  1  0.83023951  0.82459669  0.78956935  1
  Cl  Cl101  1  1.33023951  -0.32459669  -0.78956935  1
  Cl  Cl102  1  -0.33023951  -0.82459669  1.28956935  1
  Cl  Cl103  1  -0.83023951  1.32459669  -0.28956935  1
  Cl  Cl104  1  0.78956935  0.83023951  0.82459669  1
  Cl  Cl105  1  -0.78956935  1.33023951  -0.32459669  1
  Cl  Cl106  1  1.28956935  -0.33023951  -0.82459669  1
  Cl  Cl107  1  -0.28956935  -0.83023951  1.32459669  1
  Cl  Cl108  1  1.53956935  1.07459669  -0.58023951  1
  Cl  Cl109  1  -0.03956935  -0.07459669  -0.08023951  1
  Cl  Cl110  1  1.03956935  -0.57459669  1.58023951  1
  Cl  Cl111  1  -0.53956935  1.57459669  1.08023951  1
  Cl  Cl112  1  1.57459669  1.08023951  -0.53956935  1
  Cl  Cl113  1  -0.57459669  1.58023951  1.03956935  1
  Cl  Cl114  1  -0.07459669  -0.08023951  -0.03956935  1
  Cl  Cl115  1  1.07459669  -0.58023951  1.53956935  1
  Cl  Cl116  1  1.58023951  1.03956935  -0.57459669  1
  Cl  Cl117  1  1.08023951  -0.53956935  1.57459669  1
  Cl  Cl118  1  -0.58023951  1.53956935  1.07459669  1
  Cl  Cl119  1  -0.08023951  -0.03956935  -0.07459669  1
  Cl  Cl120  1  -0.82459669  -0.78956935  -0.83023951  1
  Cl  Cl121  1  1.32459669  0.78956935  -0.33023951  1
  Cl  Cl122  1  0.82459669  -0.28956935  1.33023951  1
  Cl  Cl123  1  -0.32459669  1.28956935  0.83023951  1
  Cl  Cl124  1  -0.83023951  -0.82459669  -0.78956935  1
  Cl  Cl125  1  -0.33023951  1.32459669  0.78956935  1
  Cl  Cl126  1  1.33023951  0.82459669  -0.28956935  1
  Cl  Cl127  1  0.83023951  -0.32459669  1.28956935  1
  Cl  Cl128  1  -0.78956935  -0.83023951  -0.82459669  1
  Cl  Cl129  1  0.78956935  -0.33023951  1.32459669  1
  Cl  Cl130  1  -0.28956935  1.33023951  0.82459669  1
  Cl  Cl131  1  1.28956935  0.83023951  -0.32459669  1
  Cl  Cl132  1  -0.53956935  -0.07459669  1.58023951  1
  Cl  Cl133  1  1.03956935  1.07459669  1.08023951  1
  Cl  Cl134  1  -0.03956935  1.57459669  -0.58023951  1
  Cl  Cl135  1  1.53956935  -0.57459669  -0.08023951  1
  Cl  Cl136  1  -0.57459669  -0.08023951  1.53956935  1
  Cl  Cl137  1  1.57459669  -0.58023951  -0.03956935  1
  Cl  Cl138  1  1.07459669  1.08023951  1.03956935  1
  Cl  Cl139  1  -0.07459669  1.58023951  -0.53956935  1
  Cl  Cl140  1  -0.58023951  -0.03956935  1.57459669  1
  Cl  Cl141  1  -0.08023951  1.53956935  -0.57459669  1
  Cl  Cl142  1  1.58023951  -0.53956935  -0.07459669  1
  Cl  Cl143  1  1.08023951  1.03956935  1.07459669  1
  Cl  Cl144  1  1.32459669  1.28956935  1.33023951  1
  Cl  Cl145  1  0.17540331  -0.28956935  1.83023951  1
  Cl  Cl146  1  -0.32459669  1.78956935  0.16976049  1
  Cl  Cl147  1  1.82459669  0.21043065  -0.33023951  1
  Cl  Cl148  1  1.33023951  1.32459669  1.28956935  1
  Cl  Cl149  1  1.83023951  0.17540331  -0.28956935  1
  Cl  Cl150  1  0.16976049  -0.32459669  1.78956935  1
  Cl  Cl151  1  -0.33023951  1.82459669  0.21043065  1
  Cl  Cl152  1  1.28956935  1.33023951  1.32459669  1
  Cl  Cl153  1  -0.28956935  1.83023951  0.17540331  1
  Cl  Cl154  1  1.78956935  0.16976049  -0.32459669  1
  Cl  Cl155  1  0.21043065  -0.33023951  1.82459669  1
  Cl  Cl156  1  2.03956935  1.57459669  -0.08023951  1
  Cl  Cl157  1  0.46043065  0.42540331  0.41976049  1
  Cl  Cl158  1  1.53956935  -0.07459669  2.08023951  1
  Cl  Cl159  1  -0.03956935  2.07459669  1.58023951  1
  Cl  Cl160  1  2.07459669  1.58023951  -0.03956935  1
  Cl  Cl161  1  -0.07459669  2.08023951  1.53956935  1
  Cl  Cl162  1  0.42540331  0.41976049  0.46043065  1
  Cl  Cl163  1  1.57459669  -0.08023951  2.03956935  1
  Cl  Cl164  1  2.08023951  1.53956935  -0.07459669  1
  Cl  Cl165  1  1.58023951  -0.03956935  2.07459669  1
  Cl  Cl166  1  -0.08023951  2.03956935  1.57459669  1
  Cl  Cl167  1  0.41976049  0.46043065  0.42540331  1
  Cl  Cl168  1  -0.32459669  -0.28956935  -0.33023951  1
  Cl  Cl169  1  1.82459669  1.28956935  0.16976049  1
  Cl  Cl170  1  1.32459669  0.21043065  1.83023951  1
  Cl  Cl171  1  0.17540331  1.78956935  1.33023951  1
  Cl  Cl172  1  -0.33023951  -0.32459669  -0.28956935  1
  Cl  Cl173  1  0.16976049  1.82459669  1.28956935  1
  Cl  Cl174  1  1.83023951  1.32459669  0.21043065  1
  Cl  Cl175  1  1.33023951  0.17540331  1.78956935  1
  Cl  Cl176  1  -0.28956935  -0.33023951  -0.32459669  1
  Cl  Cl177  1  1.28956935  0.16976049  1.82459669  1
  Cl  Cl178  1  0.21043065  1.83023951  1.32459669  1
  Cl  Cl179  1  1.78956935  1.33023951  0.17540331  1
  Cl  Cl180  1  -0.03956935  0.42540331  2.08023951  1
  Cl  Cl181  1  1.53956935  1.57459669  1.58023951  1
  Cl  Cl182  1  0.46043065  2.07459669  -0.08023951  1
  Cl  Cl183  1  2.03956935  -0.07459669  0.41976049  1
  Cl  Cl184  1  -0.07459669  0.41976049  2.03956935  1
  Cl  Cl185  1  2.07459669  -0.08023951  0.46043065  1
  Cl  Cl186  1  1.57459669  1.58023951  1.53956935  1
  Cl  Cl187  1  0.42540331  2.08023951  -0.03956935  1
  Cl  Cl188  1  -0.08023951  0.46043065  2.07459669  1
  Cl  Cl189  1  0.41976049  2.03956935  -0.07459669  1
  Cl  Cl190  1  2.08023951  -0.03956935  0.42540331  1
  Cl  Cl191  1  1.58023951  1.53956935  1.57459669  1
  F  F192  1  0.89977040  0.24040322  0.17322830  1
  F  F193  1  0.60022960  0.75959678  0.67322830  1
  F  F194  1  0.10022960  0.74040322  0.32677170  1
  F  F195  1  0.39977040  0.25959678  0.82677170  1
  F  F196  1  0.17322830  0.89977040  0.24040322  1
  F  F197  1  0.67322830  0.60022960  0.75959678  1
  F  F198  1  0.32677170  0.10022960  0.74040322  1
  F  F199  1  0.82677170  0.39977040  0.25959678  1
  F  F200  1  0.24040322  0.17322830  0.89977040  1
  F  F201  1  0.75959678  0.67322830  0.60022960  1
  F  F202  1  0.74040322  0.32677170  0.10022960  1
  F  F203  1  0.25959678  0.82677170  0.39977040  1
  F  F204  1  0.99040322  0.14977040  0.07677170  1
  F  F205  1  0.50959678  0.85022960  0.57677170  1
  F  F206  1  0.49040322  0.35022960  0.92322830  1
  F  F207  1  0.00959678  0.64977040  0.42322830  1
  F  F208  1  0.64977040  0.42322830  0.00959678  1
  F  F209  1  0.35022960  0.92322830  0.49040322  1
  F  F210  1  0.85022960  0.57677170  0.50959678  1
  F  F211  1  0.14977040  0.07677170  0.99040322  1
  F  F212  1  0.92322830  0.49040322  0.35022960  1
  F  F213  1  0.42322830  0.00959678  0.64977040  1
  F  F214  1  0.07677170  0.99040322  0.14977040  1
  F  F215  1  0.57677170  0.50959678  0.85022960  1
  F  F216  1  0.10022960  0.75959678  0.82677170  1
  F  F217  1  0.39977040  0.24040322  0.32677170  1
  F  F218  1  0.89977040  0.25959678  0.67322830  1
  F  F219  1  0.60022960  0.74040322  0.17322830  1
  F  F220  1  0.82677170  0.10022960  0.75959678  1
  F  F221  1  0.32677170  0.39977040  0.24040322  1
  F  F222  1  0.67322830  0.89977040  0.25959678  1
  F  F223  1  0.17322830  0.60022960  0.74040322  1
  F  F224  1  0.75959678  0.82677170  0.10022960  1
  F  F225  1  0.24040322  0.32677170  0.39977040  1
  F  F226  1  0.25959678  0.67322830  0.89977040  1
  F  F227  1  0.74040322  0.17322830  0.60022960  1
  F  F228  1  0.00959678  0.85022960  0.92322830  1
  F  F229  1  0.49040322  0.14977040  0.42322830  1
  F  F230  1  0.50959678  0.64977040  0.07677170  1
  F  F231  1  0.99040322  0.35022960  0.57677170  1
  F  F232  1  0.35022960  0.57677170  0.99040322  1
  F  F233  1  0.64977040  0.07677170  0.50959678  1
  F  F234  1  0.14977040  0.42322830  0.49040322  1
  F  F235  1  0.85022960  0.92322830  0.00959678  1
  F  F236  1  0.07677170  0.50959678  0.64977040  1
  F  F237  1  0.57677170  0.99040322  0.35022960  1
  F  F238  1  0.92322830  0.00959678  0.85022960  1
  F  F239  1  0.42322830  0.49040322  0.14977040  1
  F  F240  1  0.39977040  0.74040322  0.67322830  1
  F  F241  1  0.10022960  0.25959678  0.17322830  1
  F  F242  1  0.60022960  0.24040322  0.82677170  1
  F  F243  1  0.89977040  0.75959678  0.32677170  1
  F  F244  1  0.67322830  0.39977040  0.74040322  1
  F  F245  1  0.17322830  0.10022960  0.25959678  1
  F  F246  1  0.82677170  0.60022960  0.24040322  1
  F  F247  1  0.32677170  0.89977040  0.75959678  1
  F  F248  1  0.74040322  0.67322830  0.39977040  1
  F  F249  1  0.25959678  0.17322830  0.10022960  1
  F  F250  1  0.24040322  0.82677170  0.60022960  1
  F  F251  1  0.75959678  0.32677170  0.89977040  1
  F  F252  1  0.49040322  0.64977040  0.57677170  1
  F  F253  1  0.00959678  0.35022960  0.07677170  1
  F  F254  1  0.99040322  0.85022960  0.42322830  1
  F  F255  1  0.50959678  0.14977040  0.92322830  1
  F  F256  1  0.14977040  0.92322830  0.50959678  1
  F  F257  1  0.85022960  0.42322830  0.99040322  1
  F  F258  1  0.35022960  0.07677170  0.00959678  1
  F  F259  1  0.64977040  0.57677170  0.49040322  1
  F  F260  1  0.42322830  0.99040322  0.85022960  1
  F  F261  1  0.92322830  0.50959678  0.14977040  1
  F  F262  1  0.57677170  0.49040322  0.64977040  1
  F  F263  1  0.07677170  0.00959678  0.35022960  1
  F  F264  1  0.60022960  0.25959678  0.32677170  1
  F  F265  1  0.89977040  0.74040322  0.82677170  1
  F  F266  1  0.39977040  0.75959678  0.17322830  1
  F  F267  1  0.10022960  0.24040322  0.67322830  1
  F  F268  1  0.32677170  0.60022960  0.25959678  1
  F  F269  1  0.82677170  0.89977040  0.74040322  1
  F  F270  1  0.17322830  0.39977040  0.75959678  1
  F  F271  1  0.67322830  0.10022960  0.24040322  1
  F  F272  1  0.25959678  0.32677170  0.60022960  1
  F  F273  1  0.74040322  0.82677170  0.89977040  1
  F  F274  1  0.75959678  0.17322830  0.39977040  1
  F  F275  1  0.24040322  0.67322830  0.10022960  1
  F  F276  1  0.50959678  0.35022960  0.42322830  1
  F  F277  1  0.99040322  0.64977040  0.92322830  1
  F  F278  1  0.00959678  0.14977040  0.57677170  1
  F  F279  1  0.49040322  0.85022960  0.07677170  1
  F  F280  1  0.85022960  0.07677170  0.49040322  1
  F  F281  1  0.14977040  0.57677170  0.00959678  1
  F  F282  1  0.64977040  0.92322830  0.99040322  1
  F  F283  1  0.35022960  0.42322830  0.50959678  1
  F  F284  1  0.57677170  0.00959678  0.14977040  1
  F  F285  1  0.07677170  0.49040322  0.85022960  1
  F  F286  1  0.42322830  0.50959678  0.35022960  1
  F  F287  1  0.92322830  0.99040322  0.64977040  1
  F  F288  1  0.12500000  0.88892189  0.36107811  1
  F  F289  1  0.37500000  0.11107811  0.86107811  1
  F  F290  1  0.87500000  0.38892189  0.13892189  1
  F  F291  1  0.62500000  0.61107811  0.63892189  1
  F  F292  1  0.36107811  0.12500000  0.88892189  1
  F  F293  1  0.86107811  0.37500000  0.11107811  1
  F  F294  1  0.13892189  0.87500000  0.38892189  1
  F  F295  1  0.63892189  0.62500000  0.61107811  1
  F  F296  1  0.88892189  0.36107811  0.12500000  1
  F  F297  1  0.11107811  0.86107811  0.37500000  1
  F  F298  1  0.38892189  0.13892189  0.87500000  1
  F  F299  1  0.61107811  0.63892189  0.62500000  1
  F  F300  1  0.87500000  0.11107811  0.63892189  1
  F  F301  1  0.62500000  0.88892189  0.13892189  1
  F  F302  1  0.12500000  0.61107811  0.86107811  1
  F  F303  1  0.37500000  0.38892189  0.36107811  1
  F  F304  1  0.63892189  0.87500000  0.11107811  1
  F  F305  1  0.13892189  0.62500000  0.88892189  1
  F  F306  1  0.86107811  0.12500000  0.61107811  1
  F  F307  1  0.36107811  0.37500000  0.38892189  1
  F  F308  1  0.11107811  0.63892189  0.87500000  1
  F  F309  1  0.88892189  0.13892189  0.62500000  1
  F  F310  1  0.61107811  0.86107811  0.12500000  1
  F  F311  1  0.38892189  0.36107811  0.37500000  1
  F  F312  1  0.62500000  0.38892189  0.86107811  1
  F  F313  1  0.87500000  0.61107811  0.36107811  1
  F  F314  1  0.37500000  0.88892189  0.63892189  1
  F  F315  1  0.12500000  0.11107811  0.13892189  1
  F  F316  1  0.86107811  0.62500000  0.38892189  1
  F  F317  1  0.36107811  0.87500000  0.61107811  1
  F  F318  1  0.63892189  0.37500000  0.88892189  1
  F  F319  1  0.13892189  0.12500000  0.11107811  1
  F  F320  1  0.38892189  0.86107811  0.62500000  1
  F  F321  1  0.61107811  0.36107811  0.87500000  1
  F  F322  1  0.88892189  0.63892189  0.37500000  1
  F  F323  1  0.11107811  0.13892189  0.12500000  1
  F  F324  1  0.37500000  0.61107811  0.13892189  1
  F  F325  1  0.12500000  0.38892189  0.63892189  1
  F  F326  1  0.62500000  0.11107811  0.36107811  1
  F  F327  1  0.87500000  0.88892189  0.86107811  1
  F  F328  1  0.13892189  0.37500000  0.61107811  1
  F  F329  1  0.63892189  0.12500000  0.38892189  1
  F  F330  1  0.36107811  0.62500000  0.11107811  1
  F  F331  1  0.86107811  0.87500000  0.88892189  1
  F  F332  1  0.61107811  0.13892189  0.37500000  1
  F  F333  1  0.38892189  0.63892189  0.12500000  1
  F  F334  1  0.11107811  0.36107811  0.62500000  1
  F  F335  1  0.88892189  0.86107811  0.87500000  1
  F  F336  1  0.26770791  0.63544396  0.41016529  1
  F  F337  1  0.23229209  0.36455604  0.91016529  1
  F  F338  1  0.73229209  0.13544396  0.08983471  1
  F  F339  1  0.76770791  0.86455604  0.58983471  1
  F  F340  1  0.41016529  0.26770791  0.63544396  1
  F  F341  1  0.91016529  0.23229209  0.36455604  1
  F  F342  1  0.08983471  0.73229209  0.13544396  1
  F  F343  1  0.58983471  0.76770791  0.86455604  1
  F  F344  1  0.63544396  0.41016529  0.26770791  1
  F  F345  1  0.36455604  0.91016529  0.23229209  1
  F  F346  1  0.13544396  0.08983471  0.73229209  1
  F  F347  1  0.86455604  0.58983471  0.76770791  1
  F  F348  1  0.38544396  0.51770791  0.83983471  1
  F  F349  1  0.11455604  0.48229209  0.33983471  1
  F  F350  1  0.88544396  0.98229209  0.16016529  1
  F  F351  1  0.61455604  0.01770791  0.66016529  1
  F  F352  1  0.01770791  0.66016529  0.61455604  1
  F  F353  1  0.98229209  0.16016529  0.88544396  1
  F  F354  1  0.48229209  0.33983471  0.11455604  1
  F  F355  1  0.51770791  0.83983471  0.38544396  1
  F  F356  1  0.16016529  0.88544396  0.98229209  1
  F  F357  1  0.66016529  0.61455604  0.01770791  1
  F  F358  1  0.83983471  0.38544396  0.51770791  1
  F  F359  1  0.33983471  0.11455604  0.48229209  1
  F  F360  1  0.73229209  0.36455604  0.58983471  1
  F  F361  1  0.76770791  0.63544396  0.08983471  1
  F  F362  1  0.26770791  0.86455604  0.91016529  1
  F  F363  1  0.23229209  0.13544396  0.41016529  1
  F  F364  1  0.58983471  0.73229209  0.36455604  1
  F  F365  1  0.08983471  0.76770791  0.63544396  1
  F  F366  1  0.91016529  0.26770791  0.86455604  1
  F  F367  1  0.41016529  0.23229209  0.13544396  1
  F  F368  1  0.36455604  0.58983471  0.73229209  1
  F  F369  1  0.63544396  0.08983471  0.76770791  1
  F  F370  1  0.86455604  0.91016529  0.26770791  1
  F  F371  1  0.13544396  0.41016529  0.23229209  1
  F  F372  1  0.61455604  0.48229209  0.16016529  1
  F  F373  1  0.88544396  0.51770791  0.66016529  1
  F  F374  1  0.11455604  0.01770791  0.83983471  1
  F  F375  1  0.38544396  0.98229209  0.33983471  1
  F  F376  1  0.98229209  0.33983471  0.38544396  1
  F  F377  1  0.01770791  0.83983471  0.11455604  1
  F  F378  1  0.51770791  0.66016529  0.88544396  1
  F  F379  1  0.48229209  0.16016529  0.61455604  1
  F  F380  1  0.83983471  0.11455604  0.01770791  1
  F  F381  1  0.33983471  0.38544396  0.98229209  1
  F  F382  1  0.16016529  0.61455604  0.48229209  1
  F  F383  1  0.66016529  0.88544396  0.51770791  1
  F  F384  1  0.76770791  0.13544396  0.91016529  1
  F  F385  1  0.73229209  0.86455604  0.41016529  1
  F  F386  1  0.23229209  0.63544396  0.58983471  1
  F  F387  1  0.26770791  0.36455604  0.08983471  1
  F  F388  1  0.91016529  0.76770791  0.13544396  1
  F  F389  1  0.41016529  0.73229209  0.86455604  1
  F  F390  1  0.58983471  0.23229209  0.63544396  1
  F  F391  1  0.08983471  0.26770791  0.36455604  1
  F  F392  1  0.13544396  0.91016529  0.76770791  1
  F  F393  1  0.86455604  0.41016529  0.73229209  1
  F  F394  1  0.63544396  0.58983471  0.23229209  1
  F  F395  1  0.36455604  0.08983471  0.26770791  1
  F  F396  1  0.88544396  0.01770791  0.33983471  1
  F  F397  1  0.61455604  0.98229209  0.83983471  1
  F  F398  1  0.38544396  0.48229209  0.66016529  1
  F  F399  1  0.11455604  0.51770791  0.16016529  1
  F  F400  1  0.51770791  0.16016529  0.11455604  1
  F  F401  1  0.48229209  0.66016529  0.38544396  1
  F  F402  1  0.98229209  0.83983471  0.61455604  1
  F  F403  1  0.01770791  0.33983471  0.88544396  1
  F  F404  1  0.66016529  0.38544396  0.48229209  1
  F  F405  1  0.16016529  0.11455604  0.51770791  1
  F  F406  1  0.33983471  0.88544396  0.01770791  1
  F  F407  1  0.83983471  0.61455604  0.98229209  1
  F  F408  1  0.23229209  0.86455604  0.08983471  1
  F  F409  1  0.26770791  0.13544396  0.58983471  1
  F  F410  1  0.76770791  0.36455604  0.41016529  1
  F  F411  1  0.73229209  0.63544396  0.91016529  1
  F  F412  1  0.08983471  0.23229209  0.86455604  1
  F  F413  1  0.58983471  0.26770791  0.13544396  1
  F  F414  1  0.41016529  0.76770791  0.36455604  1
  F  F415  1  0.91016529  0.73229209  0.63544396  1
  F  F416  1  0.86455604  0.08983471  0.23229209  1
  F  F417  1  0.13544396  0.58983471  0.26770791  1
  F  F418  1  0.36455604  0.41016529  0.76770791  1
  F  F419  1  0.63544396  0.91016529  0.73229209  1
  F  F420  1  0.11455604  0.98229209  0.66016529  1
  F  F421  1  0.38544396  0.01770791  0.16016529  1
  F  F422  1  0.61455604  0.51770791  0.33983471  1
  F  F423  1  0.88544396  0.48229209  0.83983471  1
  F  F424  1  0.48229209  0.83983471  0.88544396  1
  F  F425  1  0.51770791  0.33983471  0.61455604  1
  F  F426  1  0.01770791  0.16016529  0.38544396  1
  F  F427  1  0.98229209  0.66016529  0.11455604  1
  F  F428  1  0.33983471  0.61455604  0.51770791  1
  F  F429  1  0.83983471  0.88544396  0.48229209  1
  F  F430  1  0.66016529  0.11455604  0.98229209  1
  F  F431  1  0.16016529  0.38544396  0.01770791  1
  F  F432  1  0.12500000  0.02683644  0.22316356  1
  F  F433  1  0.37500000  0.97316356  0.72316356  1
  F  F434  1  0.87500000  0.52683644  0.27683644  1
  F  F435  1  0.62500000  0.47316356  0.77683644  1
  F  F436  1  0.22316356  0.12500000  0.02683644  1
  F  F437  1  0.72316356  0.37500000  0.97316356  1
  F  F438  1  0.27683644  0.87500000  0.52683644  1
  F  F439  1  0.77683644  0.62500000  0.47316356  1
  F  F440  1  0.02683644  0.22316356  0.12500000  1
  F  F441  1  0.97316356  0.72316356  0.37500000  1
  F  F442  1  0.52683644  0.27683644  0.87500000  1
  F  F443  1  0.47316356  0.77683644  0.62500000  1
  F  F444  1  0.87500000  0.97316356  0.77683644  1
  F  F445  1  0.62500000  0.02683644  0.27683644  1
  F  F446  1  0.12500000  0.47316356  0.72316356  1
  F  F447  1  0.37500000  0.52683644  0.22316356  1
  F  F448  1  0.77683644  0.87500000  0.97316356  1
  F  F449  1  0.27683644  0.62500000  0.02683644  1
  F  F450  1  0.72316356  0.12500000  0.47316356  1
  F  F451  1  0.22316356  0.37500000  0.52683644  1
  F  F452  1  0.97316356  0.77683644  0.87500000  1
  F  F453  1  0.02683644  0.27683644  0.62500000  1
  F  F454  1  0.47316356  0.72316356  0.12500000  1
  F  F455  1  0.52683644  0.22316356  0.37500000  1
  F  F456  1  0.62500000  0.52683644  0.72316356  1
  F  F457  1  0.87500000  0.47316356  0.22316356  1
  F  F458  1  0.37500000  0.02683644  0.77683644  1
  F  F459  1  0.12500000  0.97316356  0.27683644  1
  F  F460  1  0.72316356  0.62500000  0.52683644  1
  F  F461  1  0.22316356  0.87500000  0.47316356  1
  F  F462  1  0.77683644  0.37500000  0.02683644  1
  F  F463  1  0.27683644  0.12500000  0.97316356  1
  F  F464  1  0.52683644  0.72316356  0.62500000  1
  F  F465  1  0.47316356  0.22316356  0.87500000  1
  F  F466  1  0.02683644  0.77683644  0.37500000  1
  F  F467  1  0.97316356  0.27683644  0.12500000  1
  F  F468  1  0.37500000  0.47316356  0.27683644  1
  F  F469  1  0.12500000  0.52683644  0.77683644  1
  F  F470  1  0.62500000  0.97316356  0.22316356  1
  F  F471  1  0.87500000  0.02683644  0.72316356  1
  F  F472  1  0.27683644  0.37500000  0.47316356  1
  F  F473  1  0.77683644  0.12500000  0.52683644  1
  F  F474  1  0.22316356  0.62500000  0.97316356  1
  F  F475  1  0.72316356  0.87500000  0.02683644  1
  F  F476  1  0.47316356  0.27683644  0.37500000  1
  F  F477  1  0.52683644  0.77683644  0.12500000  1
  F  F478  1  0.97316356  0.22316356  0.62500000  1
  F  F479  1  0.02683644  0.72316356  0.87500000  1
  F  F480  1  0.17646848  0.13892306  0.54098904  1
  F  F481  1  0.32353152  0.86107694  0.04098904  1
  F  F482  1  0.82353152  0.63892306  0.95901096  1
  F  F483  1  0.67646848  0.36107694  0.45901096  1
  F  F484  1  0.54098904  0.17646848  0.13892306  1
  F  F485  1  0.04098904  0.32353152  0.86107694  1
  F  F486  1  0.95901096  0.82353152  0.63892306  1
  F  F487  1  0.45901096  0.67646848  0.36107694  1
  F  F488  1  0.13892306  0.54098904  0.17646848  1
  F  F489  1  0.86107694  0.04098904  0.32353152  1
  F  F490  1  0.63892306  0.95901096  0.82353152  1
  F  F491  1  0.36107694  0.45901096  0.67646848  1
  F  F492  1  0.88892306  0.42646848  0.70901096  1
  F  F493  1  0.61107694  0.57353152  0.20901096  1
  F  F494  1  0.38892306  0.07353152  0.29098904  1
  F  F495  1  0.11107694  0.92646848  0.79098904  1
  F  F496  1  0.92646848  0.79098904  0.11107694  1
  F  F497  1  0.07353152  0.29098904  0.38892306  1
  F  F498  1  0.57353152  0.20901096  0.61107694  1
  F  F499  1  0.42646848  0.70901096  0.88892306  1
  F  F500  1  0.29098904  0.38892306  0.07353152  1
  F  F501  1  0.79098904  0.11107694  0.92646848  1
  F  F502  1  0.70901096  0.88892306  0.42646848  1
  F  F503  1  0.20901096  0.61107694  0.57353152  1
  F  F504  1  0.82353152  0.86107694  0.45901096  1
  F  F505  1  0.67646848  0.13892306  0.95901096  1
  F  F506  1  0.17646848  0.36107694  0.04098904  1
  F  F507  1  0.32353152  0.63892306  0.54098904  1
  F  F508  1  0.45901096  0.82353152  0.86107694  1
  F  F509  1  0.95901096  0.67646848  0.13892306  1
  F  F510  1  0.04098904  0.17646848  0.36107694  1
  F  F511  1  0.54098904  0.32353152  0.63892306  1
  F  F512  1  0.86107694  0.45901096  0.82353152  1
  F  F513  1  0.13892306  0.95901096  0.67646848  1
  F  F514  1  0.36107694  0.04098904  0.17646848  1
  F  F515  1  0.63892306  0.54098904  0.32353152  1
  F  F516  1  0.11107694  0.57353152  0.29098904  1
  F  F517  1  0.38892306  0.42646848  0.79098904  1
  F  F518  1  0.61107694  0.92646848  0.70901096  1
  F  F519  1  0.88892306  0.07353152  0.20901096  1
  F  F520  1  0.07353152  0.20901096  0.88892306  1
  F  F521  1  0.92646848  0.70901096  0.61107694  1
  F  F522  1  0.42646848  0.79098904  0.38892306  1
  F  F523  1  0.57353152  0.29098904  0.11107694  1
  F  F524  1  0.70901096  0.61107694  0.92646848  1
  F  F525  1  0.20901096  0.88892306  0.07353152  1
  F  F526  1  0.29098904  0.11107694  0.57353152  1
  F  F527  1  0.79098904  0.38892306  0.42646848  1
  F  F528  1  0.67646848  0.63892306  0.04098904  1
  F  F529  1  0.82353152  0.36107694  0.54098904  1
  F  F530  1  0.32353152  0.13892306  0.45901096  1
  F  F531  1  0.17646848  0.86107694  0.95901096  1
  F  F532  1  0.04098904  0.67646848  0.63892306  1
  F  F533  1  0.54098904  0.82353152  0.36107694  1
  F  F534  1  0.45901096  0.32353152  0.13892306  1
  F  F535  1  0.95901096  0.17646848  0.86107694  1
  F  F536  1  0.63892306  0.04098904  0.67646848  1
  F  F537  1  0.36107694  0.54098904  0.82353152  1
  F  F538  1  0.13892306  0.45901096  0.32353152  1
  F  F539  1  0.86107694  0.95901096  0.17646848  1
  F  F540  1  0.38892306  0.92646848  0.20901096  1
  F  F541  1  0.11107694  0.07353152  0.70901096  1
  F  F542  1  0.88892306  0.57353152  0.79098904  1
  F  F543  1  0.61107694  0.42646848  0.29098904  1
  F  F544  1  0.42646848  0.29098904  0.61107694  1
  F  F545  1  0.57353152  0.79098904  0.88892306  1
  F  F546  1  0.07353152  0.70901096  0.11107694  1
  F  F547  1  0.92646848  0.20901096  0.38892306  1
  F  F548  1  0.79098904  0.88892306  0.57353152  1
  F  F549  1  0.29098904  0.61107694  0.42646848  1
  F  F550  1  0.20901096  0.38892306  0.92646848  1
  F  F551  1  0.70901096  0.11107694  0.07353152  1
  F  F552  1  0.32353152  0.36107694  0.95901096  1
  F  F553  1  0.17646848  0.63892306  0.45901096  1
  F  F554  1  0.67646848  0.86107694  0.54098904  1
  F  F555  1  0.82353152  0.13892306  0.04098904  1
  F  F556  1  0.95901096  0.32353152  0.36107694  1
  F  F557  1  0.45901096  0.17646848  0.63892306  1
  F  F558  1  0.54098904  0.67646848  0.86107694  1
  F  F559  1  0.04098904  0.82353152  0.13892306  1
  F  F560  1  0.36107694  0.95901096  0.32353152  1
  F  F561  1  0.63892306  0.45901096  0.17646848  1
  F  F562  1  0.86107694  0.54098904  0.67646848  1
  F  F563  1  0.13892306  0.04098904  0.82353152  1
  F  F564  1  0.61107694  0.07353152  0.79098904  1
  F  F565  1  0.88892306  0.92646848  0.29098904  1
  F  F566  1  0.11107694  0.42646848  0.20901096  1
  F  F567  1  0.38892306  0.57353152  0.70901096  1
  F  F568  1  0.57353152  0.70901096  0.38892306  1
  F  F569  1  0.42646848  0.20901096  0.11107694  1
  F  F570  1  0.92646848  0.29098904  0.88892306  1
  F  F571  1  0.07353152  0.79098904  0.61107694  1
  F  F572  1  0.20901096  0.11107694  0.42646848  1
  F  F573  1  0.70901096  0.38892306  0.57353152  1
  F  F574  1  0.79098904  0.61107694  0.07353152  1
  F  F575  1  0.29098904  0.88892306  0.92646848  1
  Na  Na576  1  0.05614277  0.58735421  0.22599476  1
  Na  Na577  1  0.44385723  0.41264579  0.72599476  1
  Na  Na578  1  0.94385723  0.08735421  0.27400524  1
  Na  Na579  1  0.55614277  0.91264579  0.77400524  1
  Na  Na580  1  0.22599476  0.05614277  0.58735421  1
  Na  Na581  1  0.72599476  0.44385723  0.41264579  1
  Na  Na582  1  0.27400524  0.94385723  0.08735421  1
  Na  Na583  1  0.77400524  0.55614277  0.91264579  1
  Na  Na584  1  0.58735421  0.22599476  0.05614277  1
  Na  Na585  1  0.41264579  0.72599476  0.44385723  1
  Na  Na586  1  0.08735421  0.27400524  0.94385723  1
  Na  Na587  1  0.91264579  0.77400524  0.55614277  1
  Na  Na588  1  0.33735421  0.30614277  0.02400524  1
  Na  Na589  1  0.16264579  0.69385723  0.52400524  1
  Na  Na590  1  0.83735421  0.19385723  0.97599476  1
  Na  Na591  1  0.66264579  0.80614277  0.47599476  1
  Na  Na592  1  0.80614277  0.47599476  0.66264579  1
  Na  Na593  1  0.19385723  0.97599476  0.83735421  1
  Na  Na594  1  0.69385723  0.52400524  0.16264579  1
  Na  Na595  1  0.30614277  0.02400524  0.33735421  1
  Na  Na596  1  0.97599476  0.83735421  0.19385723  1
  Na  Na597  1  0.47599476  0.66264579  0.80614277  1
  Na  Na598  1  0.02400524  0.33735421  0.30614277  1
  Na  Na599  1  0.52400524  0.16264579  0.69385723  1
  Na  Na600  1  0.94385723  0.41264579  0.77400524  1
  Na  Na601  1  0.55614277  0.58735421  0.27400524  1
  Na  Na602  1  0.05614277  0.91264579  0.72599476  1
  Na  Na603  1  0.44385723  0.08735421  0.22599476  1
  Na  Na604  1  0.77400524  0.94385723  0.41264579  1
  Na  Na605  1  0.27400524  0.55614277  0.58735421  1
  Na  Na606  1  0.72599476  0.05614277  0.91264579  1
  Na  Na607  1  0.22599476  0.44385723  0.08735421  1
  Na  Na608  1  0.41264579  0.77400524  0.94385723  1
  Na  Na609  1  0.58735421  0.27400524  0.55614277  1
  Na  Na610  1  0.91264579  0.72599476  0.05614277  1
  Na  Na611  1  0.08735421  0.22599476  0.44385723  1
  Na  Na612  1  0.66264579  0.69385723  0.97599476  1
  Na  Na613  1  0.83735421  0.30614277  0.47599476  1
  Na  Na614  1  0.16264579  0.80614277  0.02400524  1
  Na  Na615  1  0.33735421  0.19385723  0.52400524  1
  Na  Na616  1  0.19385723  0.52400524  0.33735421  1
  Na  Na617  1  0.80614277  0.02400524  0.16264579  1
  Na  Na618  1  0.30614277  0.47599476  0.83735421  1
  Na  Na619  1  0.69385723  0.97599476  0.66264579  1
  Na  Na620  1  0.02400524  0.16264579  0.80614277  1
  Na  Na621  1  0.52400524  0.33735421  0.19385723  1
  Na  Na622  1  0.97599476  0.66264579  0.69385723  1
  Na  Na623  1  0.47599476  0.83735421  0.30614277  1
  Na  Na624  1  0.55614277  0.08735421  0.72599476  1
  Na  Na625  1  0.94385723  0.91264579  0.22599476  1
  Na  Na626  1  0.44385723  0.58735421  0.77400524  1
  Na  Na627  1  0.05614277  0.41264579  0.27400524  1
  Na  Na628  1  0.72599476  0.55614277  0.08735421  1
  Na  Na629  1  0.22599476  0.94385723  0.91264579  1
  Na  Na630  1  0.77400524  0.44385723  0.58735421  1
  Na  Na631  1  0.27400524  0.05614277  0.41264579  1
  Na  Na632  1  0.08735421  0.72599476  0.55614277  1
  Na  Na633  1  0.91264579  0.22599476  0.94385723  1
  Na  Na634  1  0.58735421  0.77400524  0.44385723  1
  Na  Na635  1  0.41264579  0.27400524  0.05614277  1
  Na  Na636  1  0.83735421  0.80614277  0.52400524  1
  Na  Na637  1  0.66264579  0.19385723  0.02400524  1
  Na  Na638  1  0.33735421  0.69385723  0.47599476  1
  Na  Na639  1  0.16264579  0.30614277  0.97599476  1
  Na  Na640  1  0.30614277  0.97599476  0.16264579  1
  Na  Na641  1  0.69385723  0.47599476  0.33735421  1
  Na  Na642  1  0.19385723  0.02400524  0.66264579  1
  Na  Na643  1  0.80614277  0.52400524  0.83735421  1
  Na  Na644  1  0.47599476  0.33735421  0.69385723  1
  Na  Na645  1  0.97599476  0.16264579  0.30614277  1
  Na  Na646  1  0.52400524  0.83735421  0.80614277  1
  Na  Na647  1  0.02400524  0.66264579  0.19385723  1
  Na  Na648  1  0.44385723  0.91264579  0.27400524  1
  Na  Na649  1  0.05614277  0.08735421  0.77400524  1
  Na  Na650  1  0.55614277  0.41264579  0.22599476  1
  Na  Na651  1  0.94385723  0.58735421  0.72599476  1
  Na  Na652  1  0.27400524  0.44385723  0.91264579  1
  Na  Na653  1  0.77400524  0.05614277  0.08735421  1
  Na  Na654  1  0.22599476  0.55614277  0.41264579  1
  Na  Na655  1  0.72599476  0.94385723  0.58735421  1
  Na  Na656  1  0.91264579  0.27400524  0.44385723  1
  Na  Na657  1  0.08735421  0.77400524  0.05614277  1
  Na  Na658  1  0.41264579  0.22599476  0.55614277  1
  Na  Na659  1  0.58735421  0.72599476  0.94385723  1
  Na  Na660  1  0.16264579  0.19385723  0.47599476  1
  Na  Na661  1  0.33735421  0.80614277  0.97599476  1
  Na  Na662  1  0.66264579  0.30614277  0.52400524  1
  Na  Na663  1  0.83735421  0.69385723  0.02400524  1
  Na  Na664  1  0.69385723  0.02400524  0.83735421  1
  Na  Na665  1  0.30614277  0.52400524  0.66264579  1
  Na  Na666  1  0.80614277  0.97599476  0.33735421  1
  Na  Na667  1  0.19385723  0.47599476  0.16264579  1
  Na  Na668  1  0.52400524  0.66264579  0.30614277  1
  Na  Na669  1  0.02400524  0.83735421  0.69385723  1
  Na  Na670  1  0.47599476  0.16264579  0.19385723  1
  Na  Na671  1  0.97599476  0.33735421  0.80614277  1
  Sr  Sr672  1  0.12500000  0.64219227  0.60780773  1
  Sr  Sr673  1  0.37500000  0.35780773  0.10780773  1
  Sr  Sr674  1  0.87500000  0.14219227  0.89219227  1
  Sr  Sr675  1  0.62500000  0.85780773  0.39219227  1
  Sr  Sr676  1  0.60780773  0.12500000  0.64219227  1
  Sr  Sr677  1  0.10780773  0.37500000  0.35780773  1
  Sr  Sr678  1  0.89219227  0.87500000  0.14219227  1
  Sr  Sr679  1  0.39219227  0.62500000  0.85780773  1
  Sr  Sr680  1  0.64219227  0.60780773  0.12500000  1
  Sr  Sr681  1  0.35780773  0.10780773  0.37500000  1
  Sr  Sr682  1  0.14219227  0.89219227  0.87500000  1
  Sr  Sr683  1  0.85780773  0.39219227  0.62500000  1
  Sr  Sr684  1  0.87500000  0.35780773  0.39219227  1
  Sr  Sr685  1  0.62500000  0.64219227  0.89219227  1
  Sr  Sr686  1  0.12500000  0.85780773  0.10780773  1
  Sr  Sr687  1  0.37500000  0.14219227  0.60780773  1
  Sr  Sr688  1  0.39219227  0.87500000  0.35780773  1
  Sr  Sr689  1  0.89219227  0.62500000  0.64219227  1
  Sr  Sr690  1  0.10780773  0.12500000  0.85780773  1
  Sr  Sr691  1  0.60780773  0.37500000  0.14219227  1
  Sr  Sr692  1  0.35780773  0.39219227  0.87500000  1
  Sr  Sr693  1  0.64219227  0.89219227  0.62500000  1
  Sr  Sr694  1  0.85780773  0.10780773  0.12500000  1
  Sr  Sr695  1  0.14219227  0.60780773  0.37500000  1
  Sr  Sr696  1  0.62500000  0.14219227  0.10780773  1
  Sr  Sr697  1  0.87500000  0.85780773  0.60780773  1
  Sr  Sr698  1  0.37500000  0.64219227  0.39219227  1
  Sr  Sr699  1  0.12500000  0.35780773  0.89219227  1
  Sr  Sr700  1  0.10780773  0.62500000  0.14219227  1
  Sr  Sr701  1  0.60780773  0.87500000  0.85780773  1
  Sr  Sr702  1  0.39219227  0.37500000  0.64219227  1
  Sr  Sr703  1  0.89219227  0.12500000  0.35780773  1
  Sr  Sr704  1  0.14219227  0.10780773  0.62500000  1
  Sr  Sr705  1  0.85780773  0.60780773  0.87500000  1
  Sr  Sr706  1  0.64219227  0.39219227  0.37500000  1
  Sr  Sr707  1  0.35780773  0.89219227  0.12500000  1
  Sr  Sr708  1  0.37500000  0.85780773  0.89219227  1
  Sr  Sr709  1  0.12500000  0.14219227  0.39219227  1
  Sr  Sr710  1  0.62500000  0.35780773  0.60780773  1
  Sr  Sr711  1  0.87500000  0.64219227  0.10780773  1
  Sr  Sr712  1  0.89219227  0.37500000  0.85780773  1
  Sr  Sr713  1  0.39219227  0.12500000  0.14219227  1
  Sr  Sr714  1  0.60780773  0.62500000  0.35780773  1
  Sr  Sr715  1  0.10780773  0.87500000  0.64219227  1
  Sr  Sr716  1  0.85780773  0.89219227  0.37500000  1
  Sr  Sr717  1  0.14219227  0.39219227  0.12500000  1
  Sr  Sr718  1  0.35780773  0.60780773  0.62500000  1
  Sr  Sr719  1  0.64219227  0.10780773  0.87500000  1
  Sr  Sr720  1  0.17263060  0.00000000  0.25000000  1
  Sr  Sr721  1  0.32736940  0.00000000  0.75000000  1
  Sr  Sr722  1  0.25000000  0.17263060  0.00000000  1
  Sr  Sr723  1  0.75000000  0.32736940  -0.00000000  1
  Sr  Sr724  1  0.00000000  0.25000000  0.17263060  1
  Sr  Sr725  1  0.00000000  0.75000000  0.32736940  1
  Sr  Sr726  1  0.75000000  0.42263060  0.00000000  1
  Sr  Sr727  1  0.75000000  0.57736940  0.50000000  1
  Sr  Sr728  1  0.92263060  0.50000000  0.25000000  1
  Sr  Sr729  1  0.07736940  0.00000000  0.25000000  1
  Sr  Sr730  1  0.00000000  0.25000000  0.07736940  1
  Sr  Sr731  1  0.50000000  0.25000000  0.92263060  1
  Sr  Sr732  1  0.82736940  0.00000000  0.75000000  1
  Sr  Sr733  1  0.67263060  0.00000000  0.25000000  1
  Sr  Sr734  1  0.75000000  0.82736940  0.00000000  1
  Sr  Sr735  1  0.25000000  0.67263060  0.00000000  1
  Sr  Sr736  1  0.00000000  0.75000000  0.82736940  1
  Sr  Sr737  1  0.00000000  0.25000000  0.67263060  1
  Sr  Sr738  1  0.25000000  0.57736940  0.00000000  1
  Sr  Sr739  1  0.25000000  0.42263060  0.50000000  1
  Sr  Sr740  1  0.07736940  0.50000000  0.75000000  1
  Sr  Sr741  1  0.92263060  0.00000000  0.75000000  1
  Sr  Sr742  1  0.00000000  0.75000000  0.92263060  1
  Sr  Sr743  1  0.50000000  0.75000000  0.07736940  1
  Sr  Sr744  1  0.67263060  0.50000000  0.75000000  1
  Sr  Sr745  1  0.82736940  0.50000000  0.25000000  1
  Sr  Sr746  1  0.75000000  0.67263060  0.50000000  1
  Sr  Sr747  1  0.25000000  0.82736940  0.50000000  1
  Sr  Sr748  1  0.50000000  0.75000000  0.67263060  1
  Sr  Sr749  1  0.50000000  0.25000000  0.82736940  1
  Sr  Sr750  1  0.25000000  0.92263060  0.50000000  1
  Sr  Sr751  1  0.25000000  0.07736940  -0.00000000  1
  Sr  Sr752  1  0.42263060  0.00000000  0.75000000  1
  Sr  Sr753  1  0.57736940  0.50000000  0.75000000  1
  Sr  Sr754  1  0.50000000  0.75000000  0.57736940  1
  Sr  Sr755  1  0.00000000  0.75000000  0.42263060  1
  Sr  Sr756  1  0.32736940  0.50000000  0.25000000  1
  Sr  Sr757  1  0.17263060  0.50000000  0.75000000  1
  Sr  Sr758  1  0.25000000  0.32736940  0.50000000  1
  Sr  Sr759  1  0.75000000  0.17263060  0.50000000  1
  Sr  Sr760  1  0.50000000  0.25000000  0.32736940  1
  Sr  Sr761  1  0.50000000  0.75000000  0.17263060  1
  Sr  Sr762  1  0.75000000  0.07736940  0.50000000  1
  Sr  Sr763  1  0.75000000  0.92263060  0.00000000  1
  Sr  Sr764  1  0.57736940  0.00000000  0.25000000  1
  Sr  Sr765  1  0.42263060  0.50000000  0.25000000  1
  Sr  Sr766  1  0.50000000  0.25000000  0.42263060  1
  Sr  Sr767  1  0.00000000  0.25000000  0.57736940  1
