# generated using pymatgen
data_SrLi36Te12SO6
_symmetry_space_group_name_H-M   'P 1'
_cell_length_a   28.07072627
_cell_length_b   28.07072627
_cell_length_c   28.07072627
_cell_angle_alpha   90.00000000
_cell_angle_beta   90.00000000
_cell_angle_gamma   90.00000000
_symmetry_Int_Tables_number   1
_chemical_formula_structural   SrLi36Te12SO6
_chemical_formula_sum   'Sr16 Li576 Te192 S16 O96'
_cell_volume   22118.76871574
_cell_formula_units_Z   16
loop_
 _symmetry_equiv_pos_site_id
 _symmetry_equiv_pos_as_xyz
  1  'x, y, z'
loop_
 _atom_site_type_symbol
 _atom_site_label
 _atom_site_symmetry_multiplicity
 _atom_site_fract_x
 _atom_site_fract_y
 _atom_site_fract_z
 _atom_site_occupancy
  Li  Li0  1  0.38503124  0.83009697  0.09976073  1
  Li  Li1  1  0.36496876  -0.58009697  0.59976073  1
  Li  Li2  1  -0.13503124  1.33009697  0.65023927  1
  Li  Li3  1  0.88503124  -0.08009697  0.15023927  1
  Li  Li4  1  0.09976073  0.38503124  0.83009697  1
  Li  Li5  1  0.59976073  0.36496876  -0.58009697  1
  Li  Li6  1  0.65023927  -0.13503124  1.33009697  1
  Li  Li7  1  0.15023927  0.88503124  -0.08009697  1
  Li  Li8  1  0.83009697  0.09976073  0.38503124  1
  Li  Li9  1  -0.58009697  0.59976073  0.36496876  1
  Li  Li10  1  1.33009697  0.65023927  -0.13503124  1
  Li  Li11  1  -0.08009697  0.15023927  0.88503124  1
  Li  Li12  1  1.58009697  0.63503124  0.40023927  1
  Li  Li13  1  -0.83009697  -0.38503124  -0.09976073  1
  Li  Li14  1  1.08009697  0.11496876  0.84976073  1
  Li  Li15  1  -0.33009697  1.13503124  0.34976073  1
  Li  Li16  1  1.13503124  0.34976073  -0.33009697  1
  Li  Li17  1  0.11496876  0.84976073  1.08009697  1
  Li  Li18  1  -0.38503124  -0.09976073  -0.83009697  1
  Li  Li19  1  0.63503124  0.40023927  1.58009697  1
  Li  Li20  1  0.84976073  1.08009697  0.11496876  1
  Li  Li21  1  0.34976073  -0.33009697  1.13503124  1
  Li  Li22  1  0.40023927  1.58009697  0.63503124  1
  Li  Li23  1  -0.09976073  -0.83009697  -0.38503124  1
  Li  Li24  1  -0.38503124  -0.83009697  -0.09976073  1
  Li  Li25  1  0.63503124  1.58009697  0.40023927  1
  Li  Li26  1  1.13503124  -0.33009697  0.34976073  1
  Li  Li27  1  0.11496876  1.08009697  0.84976073  1
  Li  Li28  1  -0.09976073  -0.38503124  -0.83009697  1
  Li  Li29  1  0.40023927  0.63503124  1.58009697  1
  Li  Li30  1  0.34976073  1.13503124  -0.33009697  1
  Li  Li31  1  0.84976073  0.11496876  1.08009697  1
  Li  Li32  1  -0.83009697  -0.09976073  -0.38503124  1
  Li  Li33  1  1.58009697  0.40023927  0.63503124  1
  Li  Li34  1  -0.33009697  0.34976073  1.13503124  1
  Li  Li35  1  1.08009697  0.84976073  0.11496876  1
  Li  Li36  1  -0.58009697  0.36496876  0.59976073  1
  Li  Li37  1  0.83009697  0.38503124  0.09976073  1
  Li  Li38  1  -0.08009697  0.88503124  0.15023927  1
  Li  Li39  1  1.33009697  -0.13503124  0.65023927  1
  Li  Li40  1  -0.13503124  0.65023927  1.33009697  1
  Li  Li41  1  0.88503124  0.15023927  -0.08009697  1
  Li  Li42  1  0.38503124  0.09976073  0.83009697  1
  Li  Li43  1  0.36496876  0.59976073  -0.58009697  1
  Li  Li44  1  0.15023927  -0.08009697  0.88503124  1
  Li  Li45  1  0.65023927  1.33009697  -0.13503124  1
  Li  Li46  1  0.59976073  -0.58009697  0.36496876  1
  Li  Li47  1  0.09976073  0.83009697  0.38503124  1
  Li  Li48  1  0.38503124  1.33009697  0.59976073  1
  Li  Li49  1  0.36496876  -0.08009697  1.09976073  1
  Li  Li50  1  -0.13503124  1.83009697  1.15023927  1
  Li  Li51  1  0.88503124  0.41990303  0.65023927  1
  Li  Li52  1  0.09976073  0.88503124  1.33009697  1
  Li  Li53  1  0.59976073  0.86496876  -0.08009697  1
  Li  Li54  1  0.65023927  0.36496876  1.83009697  1
  Li  Li55  1  0.15023927  1.38503124  0.41990303  1
  Li  Li56  1  0.83009697  0.59976073  0.88503124  1
  Li  Li57  1  -0.58009697  1.09976073  0.86496876  1
  Li  Li58  1  1.33009697  1.15023927  0.36496876  1
  Li  Li59  1  -0.08009697  0.65023927  1.38503124  1
  Li  Li60  1  1.58009697  1.13503124  0.90023927  1
  Li  Li61  1  -0.83009697  0.11496876  0.40023927  1
  Li  Li62  1  1.08009697  0.61496876  1.34976073  1
  Li  Li63  1  -0.33009697  1.63503124  0.84976073  1
  Li  Li64  1  1.13503124  0.84976073  0.16990303  1
  Li  Li65  1  0.11496876  1.34976073  1.58009697  1
  Li  Li66  1  -0.38503124  0.40023927  -0.33009697  1
  Li  Li67  1  0.63503124  0.90023927  2.08009697  1
  Li  Li68  1  0.84976073  1.58009697  0.61496876  1
  Li  Li69  1  0.34976073  0.16990303  1.63503124  1
  Li  Li70  1  0.40023927  2.08009697  1.13503124  1
  Li  Li71  1  -0.09976073  -0.33009697  0.11496876  1
  Li  Li72  1  -0.38503124  -0.33009697  0.40023927  1
  Li  Li73  1  0.63503124  2.08009697  0.90023927  1
  Li  Li74  1  1.13503124  0.16990303  0.84976073  1
  Li  Li75  1  0.11496876  1.58009697  1.34976073  1
  Li  Li76  1  -0.09976073  0.11496876  -0.33009697  1
  Li  Li77  1  0.40023927  1.13503124  2.08009697  1
  Li  Li78  1  0.34976073  1.63503124  0.16990303  1
  Li  Li79  1  0.84976073  0.61496876  1.58009697  1
  Li  Li80  1  -0.83009697  0.40023927  0.11496876  1
  Li  Li81  1  1.58009697  0.90023927  1.13503124  1
  Li  Li82  1  -0.33009697  0.84976073  1.63503124  1
  Li  Li83  1  1.08009697  1.34976073  0.61496876  1
  Li  Li84  1  -0.58009697  0.86496876  1.09976073  1
  Li  Li85  1  0.83009697  0.88503124  0.59976073  1
  Li  Li86  1  -0.08009697  1.38503124  0.65023927  1
  Li  Li87  1  1.33009697  0.36496876  1.15023927  1
  Li  Li88  1  -0.13503124  1.15023927  1.83009697  1
  Li  Li89  1  0.88503124  0.65023927  0.41990303  1
  Li  Li90  1  0.38503124  0.59976073  1.33009697  1
  Li  Li91  1  0.36496876  1.09976073  -0.08009697  1
  Li  Li92  1  0.15023927  0.41990303  1.38503124  1
  Li  Li93  1  0.65023927  1.83009697  0.36496876  1
  Li  Li94  1  0.59976073  -0.08009697  0.86496876  1
  Li  Li95  1  0.09976073  1.33009697  0.88503124  1
  Li  Li96  1  0.88503124  0.83009697  0.59976073  1
  Li  Li97  1  0.86496876  -0.58009697  1.09976073  1
  Li  Li98  1  0.36496876  1.33009697  1.15023927  1
  Li  Li99  1  1.38503124  -0.08009697  0.65023927  1
  Li  Li100  1  0.59976073  0.38503124  1.33009697  1
  Li  Li101  1  1.09976073  0.36496876  -0.08009697  1
  Li  Li102  1  1.15023927  -0.13503124  1.83009697  1
  Li  Li103  1  0.65023927  0.88503124  0.41990303  1
  Li  Li104  1  1.33009697  0.09976073  0.88503124  1
  Li  Li105  1  -0.08009697  0.59976073  0.86496876  1
  Li  Li106  1  1.83009697  0.65023927  0.36496876  1
  Li  Li107  1  0.41990303  0.15023927  1.38503124  1
  Li  Li108  1  2.08009697  0.63503124  0.90023927  1
  Li  Li109  1  -0.33009697  -0.38503124  0.40023927  1
  Li  Li110  1  1.58009697  0.11496876  1.34976073  1
  Li  Li111  1  0.16990303  1.13503124  0.84976073  1
  Li  Li112  1  1.63503124  0.34976073  0.16990303  1
  Li  Li113  1  0.61496876  0.84976073  1.58009697  1
  Li  Li114  1  0.11496876  -0.09976073  -0.33009697  1
  Li  Li115  1  1.13503124  0.40023927  2.08009697  1
  Li  Li116  1  1.34976073  1.08009697  0.61496876  1
  Li  Li117  1  0.84976073  -0.33009697  1.63503124  1
  Li  Li118  1  0.90023927  1.58009697  1.13503124  1
  Li  Li119  1  0.40023927  -0.83009697  0.11496876  1
  Li  Li120  1  0.11496876  -0.83009697  0.40023927  1
  Li  Li121  1  1.13503124  1.58009697  0.90023927  1
  Li  Li122  1  1.63503124  -0.33009697  0.84976073  1
  Li  Li123  1  0.61496876  1.08009697  1.34976073  1
  Li  Li124  1  0.40023927  -0.38503124  -0.33009697  1
  Li  Li125  1  0.90023927  0.63503124  2.08009697  1
  Li  Li126  1  0.84976073  1.13503124  0.16990303  1
  Li  Li127  1  1.34976073  0.11496876  1.58009697  1
  Li  Li128  1  -0.33009697  -0.09976073  0.11496876  1
  Li  Li129  1  2.08009697  0.40023927  1.13503124  1
  Li  Li130  1  0.16990303  0.34976073  1.63503124  1
  Li  Li131  1  1.58009697  0.84976073  0.61496876  1
  Li  Li132  1  -0.08009697  0.36496876  1.09976073  1
  Li  Li133  1  1.33009697  0.38503124  0.59976073  1
  Li  Li134  1  0.41990303  0.88503124  0.65023927  1
  Li  Li135  1  1.83009697  -0.13503124  1.15023927  1
  Li  Li136  1  0.36496876  0.65023927  1.83009697  1
  Li  Li137  1  1.38503124  0.15023927  0.41990303  1
  Li  Li138  1  0.88503124  0.09976073  1.33009697  1
  Li  Li139  1  0.86496876  0.59976073  -0.08009697  1
  Li  Li140  1  0.65023927  -0.08009697  1.38503124  1
  Li  Li141  1  1.15023927  1.33009697  0.36496876  1
  Li  Li142  1  1.09976073  -0.58009697  0.86496876  1
  Li  Li143  1  0.59976073  0.83009697  0.88503124  1
  Li  Li144  1  0.88503124  1.33009697  0.09976073  1
  Li  Li145  1  0.86496876  -0.08009697  0.59976073  1
  Li  Li146  1  0.36496876  1.83009697  0.65023927  1
  Li  Li147  1  1.38503124  0.41990303  0.15023927  1
  Li  Li148  1  0.59976073  0.88503124  0.83009697  1
  Li  Li149  1  1.09976073  0.86496876  -0.58009697  1
  Li  Li150  1  1.15023927  0.36496876  1.33009697  1
  Li  Li151  1  0.65023927  1.38503124  -0.08009697  1
  Li  Li152  1  1.33009697  0.59976073  0.38503124  1
  Li  Li153  1  -0.08009697  1.09976073  0.36496876  1
  Li  Li154  1  1.83009697  1.15023927  -0.13503124  1
  Li  Li155  1  0.41990303  0.65023927  0.88503124  1
  Li  Li156  1  2.08009697  1.13503124  0.40023927  1
  Li  Li157  1  -0.33009697  0.11496876  -0.09976073  1
  Li  Li158  1  1.58009697  0.61496876  0.84976073  1
  Li  Li159  1  0.16990303  1.63503124  0.34976073  1
  Li  Li160  1  1.63503124  0.84976073  -0.33009697  1
  Li  Li161  1  0.61496876  1.34976073  1.08009697  1
  Li  Li162  1  0.11496876  0.40023927  -0.83009697  1
  Li  Li163  1  1.13503124  0.90023927  1.58009697  1
  Li  Li164  1  1.34976073  1.58009697  0.11496876  1
  Li  Li165  1  0.84976073  0.16990303  1.13503124  1
  Li  Li166  1  0.90023927  2.08009697  0.63503124  1
  Li  Li167  1  0.40023927  -0.33009697  -0.38503124  1
  Li  Li168  1  0.11496876  -0.33009697  -0.09976073  1
  Li  Li169  1  1.13503124  2.08009697  0.40023927  1
  Li  Li170  1  1.63503124  0.16990303  0.34976073  1
  Li  Li171  1  0.61496876  1.58009697  0.84976073  1
  Li  Li172  1  0.40023927  0.11496876  -0.83009697  1
  Li  Li173  1  0.90023927  1.13503124  1.58009697  1
  Li  Li174  1  0.84976073  1.63503124  -0.33009697  1
  Li  Li175  1  1.34976073  0.61496876  1.08009697  1
  Li  Li176  1  -0.33009697  0.40023927  -0.38503124  1
  Li  Li177  1  2.08009697  0.90023927  0.63503124  1
  Li  Li178  1  0.16990303  0.84976073  1.13503124  1
  Li  Li179  1  1.58009697  1.34976073  0.11496876  1
  Li  Li180  1  -0.08009697  0.86496876  0.59976073  1
  Li  Li181  1  1.33009697  0.88503124  0.09976073  1
  Li  Li182  1  0.41990303  1.38503124  0.15023927  1
  Li  Li183  1  1.83009697  0.36496876  0.65023927  1
  Li  Li184  1  0.36496876  1.15023927  1.33009697  1
  Li  Li185  1  1.38503124  0.65023927  -0.08009697  1
  Li  Li186  1  0.88503124  0.59976073  0.83009697  1
  Li  Li187  1  0.86496876  1.09976073  -0.58009697  1
  Li  Li188  1  0.65023927  0.41990303  0.88503124  1
  Li  Li189  1  1.15023927  1.83009697  -0.13503124  1
  Li  Li190  1  1.09976073  -0.08009697  0.36496876  1
  Li  Li191  1  0.59976073  1.33009697  0.38503124  1
  Li  Li192  1  0.97135517  0.97135517  0.63820444  1
  Li  Li193  1  0.77864483  0.27864483  0.13820444  1
  Li  Li194  1  0.27864483  0.47135517  0.11179556  1
  Li  Li195  1  0.47135517  0.77864483  0.61179556  1
  Li  Li196  1  0.63820444  0.97135517  0.97135517  1
  Li  Li197  1  0.13820444  0.77864483  0.27864483  1
  Li  Li198  1  0.11179556  0.27864483  0.47135517  1
  Li  Li199  1  0.61179556  0.47135517  0.77864483  1
  Li  Li200  1  0.97135517  0.63820444  0.97135517  1
  Li  Li201  1  0.27864483  0.13820444  0.77864483  1
  Li  Li202  1  0.47135517  0.11179556  0.27864483  1
  Li  Li203  1  0.77864483  0.61179556  0.47135517  1
  Li  Li204  1  0.72135517  0.22135517  0.86179556  1
  Li  Li205  1  0.02864483  0.02864483  0.36179556  1
  Li  Li206  1  0.22135517  0.52864483  0.38820444  1
  Li  Li207  1  0.52864483  0.72135517  0.88820444  1
  Li  Li208  1  0.72135517  0.88820444  0.52864483  1
  Li  Li209  1  0.52864483  0.38820444  0.22135517  1
  Li  Li210  1  0.02864483  0.36179556  0.02864483  1
  Li  Li211  1  0.22135517  0.86179556  0.72135517  1
  Li  Li212  1  0.38820444  0.22135517  0.52864483  1
  Li  Li213  1  0.88820444  0.52864483  0.72135517  1
  Li  Li214  1  0.86179556  0.72135517  0.22135517  1
  Li  Li215  1  0.36179556  0.02864483  0.02864483  1
  Li  Li216  1  0.97135517  0.47135517  0.13820444  1
  Li  Li217  1  0.77864483  0.77864483  0.63820444  1
  Li  Li218  1  0.27864483  0.97135517  0.61179556  1
  Li  Li219  1  0.47135517  0.27864483  0.11179556  1
  Li  Li220  1  0.63820444  0.47135517  0.47135517  1
  Li  Li221  1  0.13820444  0.27864483  0.77864483  1
  Li  Li222  1  0.11179556  0.77864483  0.97135517  1
  Li  Li223  1  0.61179556  0.97135517  0.27864483  1
  Li  Li224  1  0.97135517  0.13820444  0.47135517  1
  Li  Li225  1  0.27864483  0.63820444  0.27864483  1
  Li  Li226  1  0.47135517  0.61179556  0.77864483  1
  Li  Li227  1  0.77864483  0.11179556  0.97135517  1
  Li  Li228  1  0.72135517  0.72135517  0.36179556  1
  Li  Li229  1  0.02864483  0.52864483  0.86179556  1
  Li  Li230  1  0.22135517  0.02864483  0.88820444  1
  Li  Li231  1  0.52864483  0.22135517  0.38820444  1
  Li  Li232  1  0.72135517  0.38820444  0.02864483  1
  Li  Li233  1  0.52864483  0.88820444  0.72135517  1
  Li  Li234  1  0.02864483  0.86179556  0.52864483  1
  Li  Li235  1  0.22135517  0.36179556  0.22135517  1
  Li  Li236  1  0.38820444  0.72135517  0.02864483  1
  Li  Li237  1  0.88820444  0.02864483  0.22135517  1
  Li  Li238  1  0.86179556  0.22135517  0.72135517  1
  Li  Li239  1  0.36179556  0.52864483  0.52864483  1
  Li  Li240  1  0.47135517  0.97135517  0.13820444  1
  Li  Li241  1  0.27864483  0.27864483  0.63820444  1
  Li  Li242  1  0.77864483  0.47135517  0.61179556  1
  Li  Li243  1  0.97135517  0.77864483  0.11179556  1
  Li  Li244  1  0.13820444  0.97135517  0.47135517  1
  Li  Li245  1  0.63820444  0.77864483  0.77864483  1
  Li  Li246  1  0.61179556  0.27864483  0.97135517  1
  Li  Li247  1  0.11179556  0.47135517  0.27864483  1
  Li  Li248  1  0.47135517  0.63820444  0.47135517  1
  Li  Li249  1  0.77864483  0.13820444  0.27864483  1
  Li  Li250  1  0.97135517  0.11179556  0.77864483  1
  Li  Li251  1  0.27864483  0.61179556  0.97135517  1
  Li  Li252  1  0.22135517  0.22135517  0.36179556  1
  Li  Li253  1  0.52864483  0.02864483  0.86179556  1
  Li  Li254  1  0.72135517  0.52864483  0.88820444  1
  Li  Li255  1  0.02864483  0.72135517  0.38820444  1
  Li  Li256  1  0.22135517  0.88820444  0.02864483  1
  Li  Li257  1  0.02864483  0.38820444  0.72135517  1
  Li  Li258  1  0.52864483  0.36179556  0.52864483  1
  Li  Li259  1  0.72135517  0.86179556  0.22135517  1
  Li  Li260  1  0.88820444  0.22135517  0.02864483  1
  Li  Li261  1  0.38820444  0.52864483  0.22135517  1
  Li  Li262  1  0.36179556  0.72135517  0.72135517  1
  Li  Li263  1  0.86179556  0.02864483  0.52864483  1
  Li  Li264  1  0.47135517  0.47135517  0.63820444  1
  Li  Li265  1  0.27864483  0.77864483  0.13820444  1
  Li  Li266  1  0.77864483  0.97135517  0.11179556  1
  Li  Li267  1  0.97135517  0.27864483  0.61179556  1
  Li  Li268  1  0.13820444  0.47135517  0.97135517  1
  Li  Li269  1  0.63820444  0.27864483  0.27864483  1
  Li  Li270  1  0.61179556  0.77864483  0.47135517  1
  Li  Li271  1  0.11179556  0.97135517  0.77864483  1
  Li  Li272  1  0.47135517  0.13820444  0.97135517  1
  Li  Li273  1  0.77864483  0.63820444  0.77864483  1
  Li  Li274  1  0.97135517  0.61179556  0.27864483  1
  Li  Li275  1  0.27864483  0.11179556  0.47135517  1
  Li  Li276  1  0.22135517  0.72135517  0.86179556  1
  Li  Li277  1  0.52864483  0.52864483  0.36179556  1
  Li  Li278  1  0.72135517  0.02864483  0.38820444  1
  Li  Li279  1  0.02864483  0.22135517  0.88820444  1
  Li  Li280  1  0.22135517  0.38820444  0.52864483  1
  Li  Li281  1  0.02864483  0.88820444  0.22135517  1
  Li  Li282  1  0.52864483  0.86179556  0.02864483  1
  Li  Li283  1  0.72135517  0.36179556  0.72135517  1
  Li  Li284  1  0.88820444  0.72135517  0.52864483  1
  Li  Li285  1  0.38820444  0.02864483  0.72135517  1
  Li  Li286  1  0.36179556  0.22135517  0.22135517  1
  Li  Li287  1  0.86179556  0.52864483  0.02864483  1
  Li  Li288  1  0.66665315  0.87714362  0.49185595  1
  Li  Li289  1  0.08334685  0.37285638  0.99185595  1
  Li  Li290  1  0.58334685  0.37714362  0.25814405  1
  Li  Li291  1  0.16665315  0.87285638  0.75814405  1
  Li  Li292  1  0.49185595  0.66665315  0.87714362  1
  Li  Li293  1  0.99185595  0.08334685  0.37285638  1
  Li  Li294  1  0.25814405  0.58334685  0.37714362  1
  Li  Li295  1  0.75814405  0.16665315  0.87285638  1
  Li  Li296  1  0.87714362  0.49185595  0.66665315  1
  Li  Li297  1  0.37285638  0.99185595  0.08334685  1
  Li  Li298  1  0.37714362  0.25814405  0.58334685  1
  Li  Li299  1  0.87285638  0.75814405  0.16665315  1
  Li  Li300  1  0.62714362  0.91665315  0.00814405  1
  Li  Li301  1  0.12285638  0.33334685  0.50814405  1
  Li  Li302  1  0.12714362  0.83334685  0.24185595  1
  Li  Li303  1  0.62285638  0.41665315  0.74185595  1
  Li  Li304  1  0.41665315  0.74185595  0.62285638  1
  Li  Li305  1  0.83334685  0.24185595  0.12714362  1
  Li  Li306  1  0.33334685  0.50814405  0.12285638  1
  Li  Li307  1  0.91665315  0.00814405  0.62714362  1
  Li  Li308  1  0.24185595  0.12714362  0.83334685  1
  Li  Li309  1  0.74185595  0.62285638  0.41665315  1
  Li  Li310  1  0.00814405  0.62714362  0.91665315  1
  Li  Li311  1  0.50814405  0.12285638  0.33334685  1
  Li  Li312  1  0.33334685  0.12285638  0.50814405  1
  Li  Li313  1  0.91665315  0.62714362  0.00814405  1
  Li  Li314  1  0.41665315  0.62285638  0.74185595  1
  Li  Li315  1  0.83334685  0.12714362  0.24185595  1
  Li  Li316  1  0.50814405  0.33334685  0.12285638  1
  Li  Li317  1  0.00814405  0.91665315  0.62714362  1
  Li  Li318  1  0.74185595  0.41665315  0.62285638  1
  Li  Li319  1  0.24185595  0.83334685  0.12714362  1
  Li  Li320  1  0.12285638  0.50814405  0.33334685  1
  Li  Li321  1  0.62714362  0.00814405  0.91665315  1
  Li  Li322  1  0.62285638  0.74185595  0.41665315  1
  Li  Li323  1  0.12714362  0.24185595  0.83334685  1
  Li  Li324  1  0.37285638  0.08334685  0.99185595  1
  Li  Li325  1  0.87714362  0.66665315  0.49185595  1
  Li  Li326  1  0.87285638  0.16665315  0.75814405  1
  Li  Li327  1  0.37714362  0.58334685  0.25814405  1
  Li  Li328  1  0.58334685  0.25814405  0.37714362  1
  Li  Li329  1  0.16665315  0.75814405  0.87285638  1
  Li  Li330  1  0.66665315  0.49185595  0.87714362  1
  Li  Li331  1  0.08334685  0.99185595  0.37285638  1
  Li  Li332  1  0.75814405  0.87285638  0.16665315  1
  Li  Li333  1  0.25814405  0.37714362  0.58334685  1
  Li  Li334  1  0.99185595  0.37285638  0.08334685  1
  Li  Li335  1  0.49185595  0.87714362  0.66665315  1
  Li  Li336  1  0.66665315  0.37714362  0.99185595  1
  Li  Li337  1  0.08334685  0.87285638  0.49185595  1
  Li  Li338  1  0.58334685  0.87714362  0.75814405  1
  Li  Li339  1  0.16665315  0.37285638  0.25814405  1
  Li  Li340  1  0.49185595  0.16665315  0.37714362  1
  Li  Li341  1  0.99185595  0.58334685  0.87285638  1
  Li  Li342  1  0.25814405  0.08334685  0.87714362  1
  Li  Li343  1  0.75814405  0.66665315  0.37285638  1
  Li  Li344  1  0.87714362  0.99185595  0.16665315  1
  Li  Li345  1  0.37285638  0.49185595  0.58334685  1
  Li  Li346  1  0.37714362  0.75814405  0.08334685  1
  Li  Li347  1  0.87285638  0.25814405  0.66665315  1
  Li  Li348  1  0.62714362  0.41665315  0.50814405  1
  Li  Li349  1  0.12285638  0.83334685  0.00814405  1
  Li  Li350  1  0.12714362  0.33334685  0.74185595  1
  Li  Li351  1  0.62285638  0.91665315  0.24185595  1
  Li  Li352  1  0.41665315  0.24185595  0.12285638  1
  Li  Li353  1  0.83334685  0.74185595  0.62714362  1
  Li  Li354  1  0.33334685  0.00814405  0.62285638  1
  Li  Li355  1  0.91665315  0.50814405  0.12714362  1
  Li  Li356  1  0.24185595  0.62714362  0.33334685  1
  Li  Li357  1  0.74185595  0.12285638  0.91665315  1
  Li  Li358  1  0.00814405  0.12714362  0.41665315  1
  Li  Li359  1  0.50814405  0.62285638  0.83334685  1
  Li  Li360  1  0.33334685  0.62285638  0.00814405  1
  Li  Li361  1  0.91665315  0.12714362  0.50814405  1
  Li  Li362  1  0.41665315  0.12285638  0.24185595  1
  Li  Li363  1  0.83334685  0.62714362  0.74185595  1
  Li  Li364  1  0.50814405  0.83334685  0.62285638  1
  Li  Li365  1  0.00814405  0.41665315  0.12714362  1
  Li  Li366  1  0.74185595  0.91665315  0.12285638  1
  Li  Li367  1  0.24185595  0.33334685  0.62714362  1
  Li  Li368  1  0.12285638  0.00814405  0.83334685  1
  Li  Li369  1  0.62714362  0.50814405  0.41665315  1
  Li  Li370  1  0.62285638  0.24185595  0.91665315  1
  Li  Li371  1  0.12714362  0.74185595  0.33334685  1
  Li  Li372  1  0.37285638  0.58334685  0.49185595  1
  Li  Li373  1  0.87714362  0.16665315  0.99185595  1
  Li  Li374  1  0.87285638  0.66665315  0.25814405  1
  Li  Li375  1  0.37714362  0.08334685  0.75814405  1
  Li  Li376  1  0.58334685  0.75814405  0.87714362  1
  Li  Li377  1  0.16665315  0.25814405  0.37285638  1
  Li  Li378  1  0.66665315  0.99185595  0.37714362  1
  Li  Li379  1  0.08334685  0.49185595  0.87285638  1
  Li  Li380  1  0.75814405  0.37285638  0.66665315  1
  Li  Li381  1  0.25814405  0.87714362  0.08334685  1
  Li  Li382  1  0.99185595  0.87285638  0.58334685  1
  Li  Li383  1  0.49185595  0.37714362  0.16665315  1
  Li  Li384  1  0.16665315  0.87714362  0.99185595  1
  Li  Li385  1  0.58334685  0.37285638  0.49185595  1
  Li  Li386  1  0.08334685  0.37714362  0.75814405  1
  Li  Li387  1  0.66665315  0.87285638  0.25814405  1
  Li  Li388  1  0.99185595  0.66665315  0.37714362  1
  Li  Li389  1  0.49185595  0.08334685  0.87285638  1
  Li  Li390  1  0.75814405  0.58334685  0.87714362  1
  Li  Li391  1  0.25814405  0.16665315  0.37285638  1
  Li  Li392  1  0.37714362  0.49185595  0.16665315  1
  Li  Li393  1  0.87285638  0.99185595  0.58334685  1
  Li  Li394  1  0.87714362  0.25814405  0.08334685  1
  Li  Li395  1  0.37285638  0.75814405  0.66665315  1
  Li  Li396  1  0.12714362  0.91665315  0.50814405  1
  Li  Li397  1  0.62285638  0.33334685  0.00814405  1
  Li  Li398  1  0.62714362  0.83334685  0.74185595  1
  Li  Li399  1  0.12285638  0.41665315  0.24185595  1
  Li  Li400  1  0.91665315  0.74185595  0.12285638  1
  Li  Li401  1  0.33334685  0.24185595  0.62714362  1
  Li  Li402  1  0.83334685  0.50814405  0.62285638  1
  Li  Li403  1  0.41665315  0.00814405  0.12714362  1
  Li  Li404  1  0.74185595  0.12714362  0.33334685  1
  Li  Li405  1  0.24185595  0.62285638  0.91665315  1
  Li  Li406  1  0.50814405  0.62714362  0.41665315  1
  Li  Li407  1  0.00814405  0.12285638  0.83334685  1
  Li  Li408  1  0.83334685  0.12285638  0.00814405  1
  Li  Li409  1  0.41665315  0.62714362  0.50814405  1
  Li  Li410  1  0.91665315  0.62285638  0.24185595  1
  Li  Li411  1  0.33334685  0.12714362  0.74185595  1
  Li  Li412  1  0.00814405  0.33334685  0.62285638  1
  Li  Li413  1  0.50814405  0.91665315  0.12714362  1
  Li  Li414  1  0.24185595  0.41665315  0.12285638  1
  Li  Li415  1  0.74185595  0.83334685  0.62714362  1
  Li  Li416  1  0.62285638  0.50814405  0.83334685  1
  Li  Li417  1  0.12714362  0.00814405  0.41665315  1
  Li  Li418  1  0.12285638  0.74185595  0.91665315  1
  Li  Li419  1  0.62714362  0.24185595  0.33334685  1
  Li  Li420  1  0.87285638  0.08334685  0.49185595  1
  Li  Li421  1  0.37714362  0.66665315  0.99185595  1
  Li  Li422  1  0.37285638  0.16665315  0.25814405  1
  Li  Li423  1  0.87714362  0.58334685  0.75814405  1
  Li  Li424  1  0.08334685  0.25814405  0.87714362  1
  Li  Li425  1  0.66665315  0.75814405  0.37285638  1
  Li  Li426  1  0.16665315  0.49185595  0.37714362  1
  Li  Li427  1  0.58334685  0.99185595  0.87285638  1
  Li  Li428  1  0.25814405  0.87285638  0.66665315  1
  Li  Li429  1  0.75814405  0.37714362  0.08334685  1
  Li  Li430  1  0.49185595  0.37285638  0.58334685  1
  Li  Li431  1  0.99185595  0.87714362  0.16665315  1
  Li  Li432  1  0.16665315  0.37714362  0.49185595  1
  Li  Li433  1  0.58334685  0.87285638  0.99185595  1
  Li  Li434  1  0.08334685  0.87714362  0.25814405  1
  Li  Li435  1  0.66665315  0.37285638  0.75814405  1
  Li  Li436  1  0.99185595  0.16665315  0.87714362  1
  Li  Li437  1  0.49185595  0.58334685  0.37285638  1
  Li  Li438  1  0.75814405  0.08334685  0.37714362  1
  Li  Li439  1  0.25814405  0.66665315  0.87285638  1
  Li  Li440  1  0.37714362  0.99185595  0.66665315  1
  Li  Li441  1  0.87285638  0.49185595  0.08334685  1
  Li  Li442  1  0.87714362  0.75814405  0.58334685  1
  Li  Li443  1  0.37285638  0.25814405  0.16665315  1
  Li  Li444  1  0.12714362  0.41665315  0.00814405  1
  Li  Li445  1  0.62285638  0.83334685  0.50814405  1
  Li  Li446  1  0.62714362  0.33334685  0.24185595  1
  Li  Li447  1  0.12285638  0.91665315  0.74185595  1
  Li  Li448  1  0.91665315  0.24185595  0.62285638  1
  Li  Li449  1  0.33334685  0.74185595  0.12714362  1
  Li  Li450  1  0.83334685  0.00814405  0.12285638  1
  Li  Li451  1  0.41665315  0.50814405  0.62714362  1
  Li  Li452  1  0.74185595  0.62714362  0.83334685  1
  Li  Li453  1  0.24185595  0.12285638  0.41665315  1
  Li  Li454  1  0.50814405  0.12714362  0.91665315  1
  Li  Li455  1  0.00814405  0.62285638  0.33334685  1
  Li  Li456  1  0.83334685  0.62285638  0.50814405  1
  Li  Li457  1  0.41665315  0.12714362  0.00814405  1
  Li  Li458  1  0.91665315  0.12285638  0.74185595  1
  Li  Li459  1  0.33334685  0.62714362  0.24185595  1
  Li  Li460  1  0.00814405  0.83334685  0.12285638  1
  Li  Li461  1  0.50814405  0.41665315  0.62714362  1
  Li  Li462  1  0.24185595  0.91665315  0.62285638  1
  Li  Li463  1  0.74185595  0.33334685  0.12714362  1
  Li  Li464  1  0.62285638  0.00814405  0.33334685  1
  Li  Li465  1  0.12714362  0.50814405  0.91665315  1
  Li  Li466  1  0.12285638  0.24185595  0.41665315  1
  Li  Li467  1  0.62714362  0.74185595  0.83334685  1
  Li  Li468  1  0.87285638  0.58334685  0.99185595  1
  Li  Li469  1  0.37714362  0.16665315  0.49185595  1
  Li  Li470  1  0.37285638  0.66665315  0.75814405  1
  Li  Li471  1  0.87714362  0.08334685  0.25814405  1
  Li  Li472  1  0.08334685  0.75814405  0.37714362  1
  Li  Li473  1  0.66665315  0.25814405  0.87285638  1
  Li  Li474  1  0.16665315  0.99185595  0.87714362  1
  Li  Li475  1  0.58334685  0.49185595  0.37285638  1
  Li  Li476  1  0.25814405  0.37285638  0.16665315  1
  Li  Li477  1  0.75814405  0.87714362  0.58334685  1
  Li  Li478  1  0.49185595  0.87285638  0.08334685  1
  Li  Li479  1  0.99185595  0.37714362  0.66665315  1
  Li  Li480  1  0.37500000  0.37500000  0.37500000  1
  Li  Li481  1  0.12500000  0.62500000  0.12500000  1
  Li  Li482  1  0.37500000  0.87500000  0.87500000  1
  Li  Li483  1  0.12500000  0.12500000  0.62500000  1
  Li  Li484  1  0.87500000  0.37500000  0.87500000  1
  Li  Li485  1  0.62500000  0.62500000  0.62500000  1
  Li  Li486  1  0.87500000  0.87500000  0.37500000  1
  Li  Li487  1  0.62500000  0.12500000  0.12500000  1
  Li  Li488  1  0.46910355  0.12500000  0.12500000  1
  Li  Li489  1  0.28089645  0.12500000  0.62500000  1
  Li  Li490  1  0.12500000  0.46910355  0.12500000  1
  Li  Li491  1  0.62500000  0.28089645  0.12500000  1
  Li  Li492  1  0.12500000  0.12500000  0.46910355  1
  Li  Li493  1  0.12500000  0.62500000  0.28089645  1
  Li  Li494  1  0.87500000  0.71910355  0.37500000  1
  Li  Li495  1  0.87500000  0.53089645  0.87500000  1
  Li  Li496  1  0.21910355  0.37500000  0.37500000  1
  Li  Li497  1  0.03089645  0.87500000  0.37500000  1
  Li  Li498  1  0.87500000  0.37500000  0.03089645  1
  Li  Li499  1  0.37500000  0.37500000  0.21910355  1
  Li  Li500  1  0.46910355  0.62500000  0.62500000  1
  Li  Li501  1  0.28089645  0.62500000  0.12500000  1
  Li  Li502  1  0.12500000  0.96910355  0.62500000  1
  Li  Li503  1  0.62500000  0.78089645  0.62500000  1
  Li  Li504  1  0.12500000  0.62500000  0.96910355  1
  Li  Li505  1  0.12500000  0.12500000  0.78089645  1
  Li  Li506  1  0.87500000  0.21910355  0.87500000  1
  Li  Li507  1  0.87500000  0.03089645  0.37500000  1
  Li  Li508  1  0.21910355  0.87500000  0.87500000  1
  Li  Li509  1  0.03089645  0.37500000  0.87500000  1
  Li  Li510  1  0.87500000  0.87500000  0.53089645  1
  Li  Li511  1  0.37500000  0.87500000  0.71910355  1
  Li  Li512  1  0.96910355  0.12500000  0.62500000  1
  Li  Li513  1  0.78089645  0.12500000  0.12500000  1
  Li  Li514  1  0.62500000  0.46910355  0.62500000  1
  Li  Li515  1  0.12500000  0.28089645  0.62500000  1
  Li  Li516  1  0.62500000  0.12500000  0.96910355  1
  Li  Li517  1  0.62500000  0.62500000  0.78089645  1
  Li  Li518  1  0.37500000  0.71910355  0.87500000  1
  Li  Li519  1  0.37500000  0.53089645  0.37500000  1
  Li  Li520  1  0.71910355  0.37500000  0.87500000  1
  Li  Li521  1  0.53089645  0.87500000  0.87500000  1
  Li  Li522  1  0.37500000  0.37500000  0.53089645  1
  Li  Li523  1  0.87500000  0.37500000  0.71910355  1
  Li  Li524  1  0.96910355  0.62500000  0.12500000  1
  Li  Li525  1  0.78089645  0.62500000  0.62500000  1
  Li  Li526  1  0.62500000  0.96910355  0.12500000  1
  Li  Li527  1  0.12500000  0.78089645  0.12500000  1
  Li  Li528  1  0.62500000  0.62500000  0.46910355  1
  Li  Li529  1  0.62500000  0.12500000  0.28089645  1
  Li  Li530  1  0.37500000  0.21910355  0.37500000  1
  Li  Li531  1  0.37500000  0.03089645  0.87500000  1
  Li  Li532  1  0.71910355  0.87500000  0.37500000  1
  Li  Li533  1  0.53089645  0.37500000  0.37500000  1
  Li  Li534  1  0.37500000  0.87500000  0.03089645  1
  Li  Li535  1  0.87500000  0.87500000  0.21910355  1
  Li  Li536  1  0.55204179  0.55204179  0.55204179  1
  Li  Li537  1  0.19795821  0.69795821  0.05204179  1
  Li  Li538  1  0.69795821  0.05204179  0.19795821  1
  Li  Li539  1  0.05204179  0.19795821  0.69795821  1
  Li  Li540  1  0.30204179  0.80204179  0.94795821  1
  Li  Li541  1  0.44795821  0.44795821  0.44795821  1
  Li  Li542  1  0.80204179  0.94795821  0.30204179  1
  Li  Li543  1  0.94795821  0.30204179  0.80204179  1
  Li  Li544  1  0.55204179  0.05204179  0.05204179  1
  Li  Li545  1  0.19795821  0.19795821  0.55204179  1
  Li  Li546  1  0.69795821  0.55204179  0.69795821  1
  Li  Li547  1  0.05204179  0.69795821  0.19795821  1
  Li  Li548  1  0.30204179  0.30204179  0.44795821  1
  Li  Li549  1  0.44795821  0.94795821  0.94795821  1
  Li  Li550  1  0.80204179  0.44795821  0.80204179  1
  Li  Li551  1  0.94795821  0.80204179  0.30204179  1
  Li  Li552  1  0.05204179  0.55204179  0.05204179  1
  Li  Li553  1  0.69795821  0.69795821  0.55204179  1
  Li  Li554  1  0.19795821  0.05204179  0.69795821  1
  Li  Li555  1  0.55204179  0.19795821  0.19795821  1
  Li  Li556  1  0.80204179  0.80204179  0.44795821  1
  Li  Li557  1  0.94795821  0.44795821  0.94795821  1
  Li  Li558  1  0.30204179  0.94795821  0.80204179  1
  Li  Li559  1  0.44795821  0.30204179  0.30204179  1
  Li  Li560  1  0.05204179  0.05204179  0.55204179  1
  Li  Li561  1  0.69795821  0.19795821  0.05204179  1
  Li  Li562  1  0.19795821  0.55204179  0.19795821  1
  Li  Li563  1  0.55204179  0.69795821  0.69795821  1
  Li  Li564  1  0.80204179  0.30204179  0.94795821  1
  Li  Li565  1  0.94795821  0.94795821  0.44795821  1
  Li  Li566  1  0.30204179  0.44795821  0.30204179  1
  Li  Li567  1  0.44795821  0.80204179  0.80204179  1
  Li  Li568  1  0.12500000  0.12500000  0.12500000  1
  Li  Li569  1  0.87500000  0.37500000  0.37500000  1
  Li  Li570  1  0.12500000  0.62500000  0.62500000  1
  Li  Li571  1  0.87500000  0.87500000  0.87500000  1
  Li  Li572  1  0.62500000  0.12500000  0.62500000  1
  Li  Li573  1  0.37500000  0.37500000  0.87500000  1
  Li  Li574  1  0.62500000  0.62500000  0.12500000  1
  Li  Li575  1  0.37500000  0.87500000  0.37500000  1
  O  O576  1  0.00000000  0.94405613  0.05594387  1
  O  O577  1  0.75000000  0.30594387  0.55594387  1
  O  O578  1  0.25000000  0.44405613  0.69405613  1
  O  O579  1  0.50000000  0.80594387  0.19405613  1
  O  O580  1  0.05594387  0.00000000  0.94405613  1
  O  O581  1  0.55594387  0.75000000  0.30594387  1
  O  O582  1  0.69405613  0.25000000  0.44405613  1
  O  O583  1  0.19405613  0.50000000  0.80594387  1
  O  O584  1  0.94405613  0.05594387  0.00000000  1
  O  O585  1  0.30594387  0.55594387  0.75000000  1
  O  O586  1  0.44405613  0.69405613  0.25000000  1
  O  O587  1  0.80594387  0.19405613  0.50000000  1
  O  O588  1  0.00000000  0.05594387  0.94405613  1
  O  O589  1  0.25000000  0.69405613  0.44405613  1
  O  O590  1  0.75000000  0.55594387  0.30594387  1
  O  O591  1  0.50000000  0.19405613  0.80594387  1
  O  O592  1  0.94405613  0.00000000  0.05594387  1
  O  O593  1  0.44405613  0.25000000  0.69405613  1
  O  O594  1  0.30594387  0.75000000  0.55594387  1
  O  O595  1  0.80594387  0.50000000  0.19405613  1
  O  O596  1  0.05594387  0.94405613  0.00000000  1
  O  O597  1  0.69405613  0.44405613  0.25000000  1
  O  O598  1  0.55594387  0.30594387  0.75000000  1
  O  O599  1  0.19405613  0.80594387  0.50000000  1
  O  O600  1  0.00000000  0.44405613  0.55594387  1
  O  O601  1  0.75000000  0.80594387  0.05594387  1
  O  O602  1  0.25000000  0.94405613  0.19405613  1
  O  O603  1  0.50000000  0.30594387  0.69405613  1
  O  O604  1  0.05594387  0.50000000  0.44405613  1
  O  O605  1  0.55594387  0.25000000  0.80594387  1
  O  O606  1  0.69405613  0.75000000  0.94405613  1
  O  O607  1  0.19405613  0.00000000  0.30594387  1
  O  O608  1  0.94405613  0.55594387  0.50000000  1
  O  O609  1  0.30594387  0.05594387  0.25000000  1
  O  O610  1  0.44405613  0.19405613  0.75000000  1
  O  O611  1  0.80594387  0.69405613  0.00000000  1
  O  O612  1  0.00000000  0.55594387  0.44405613  1
  O  O613  1  0.25000000  0.19405613  0.94405613  1
  O  O614  1  0.75000000  0.05594387  0.80594387  1
  O  O615  1  0.50000000  0.69405613  0.30594387  1
  O  O616  1  0.94405613  0.50000000  0.55594387  1
  O  O617  1  0.44405613  0.75000000  0.19405613  1
  O  O618  1  0.30594387  0.25000000  0.05594387  1
  O  O619  1  0.80594387  0.00000000  0.69405613  1
  O  O620  1  0.05594387  0.44405613  0.50000000  1
  O  O621  1  0.69405613  0.94405613  0.75000000  1
  O  O622  1  0.55594387  0.80594387  0.25000000  1
  O  O623  1  0.19405613  0.30594387  0.00000000  1
  O  O624  1  0.50000000  0.94405613  0.55594387  1
  O  O625  1  0.25000000  0.30594387  0.05594387  1
  O  O626  1  0.75000000  0.44405613  0.19405613  1
  O  O627  1  0.00000000  0.80594387  0.69405613  1
  O  O628  1  0.55594387  -0.00000000  0.44405613  1
  O  O629  1  0.05594387  0.75000000  0.80594387  1
  O  O630  1  0.19405613  0.25000000  0.94405613  1
  O  O631  1  0.69405613  0.50000000  0.30594387  1
  O  O632  1  0.44405613  0.05594387  0.50000000  1
  O  O633  1  0.80594387  0.55594387  0.25000000  1
  O  O634  1  0.94405613  0.69405613  0.75000000  1
  O  O635  1  0.30594387  0.19405613  0.00000000  1
  O  O636  1  0.50000000  0.05594387  0.44405613  1
  O  O637  1  0.75000000  0.69405613  0.94405613  1
  O  O638  1  0.25000000  0.55594387  0.80594387  1
  O  O639  1  0.00000000  0.19405613  0.30594387  1
  O  O640  1  0.44405613  0.00000000  0.55594387  1
  O  O641  1  0.94405613  0.25000000  0.19405613  1
  O  O642  1  0.80594387  0.75000000  0.05594387  1
  O  O643  1  0.30594387  0.50000000  0.69405613  1
  O  O644  1  0.55594387  0.94405613  0.50000000  1
  O  O645  1  0.19405613  0.44405613  0.75000000  1
  O  O646  1  0.05594387  0.30594387  0.25000000  1
  O  O647  1  0.69405613  0.80594387  0.00000000  1
  O  O648  1  0.50000000  0.44405613  0.05594387  1
  O  O649  1  0.25000000  0.80594387  0.55594387  1
  O  O650  1  0.75000000  0.94405613  0.69405613  1
  O  O651  1  0.00000000  0.30594387  0.19405613  1
  O  O652  1  0.55594387  0.50000000  0.94405613  1
  O  O653  1  0.05594387  0.25000000  0.30594387  1
  O  O654  1  0.19405613  0.75000000  0.44405613  1
  O  O655  1  0.69405613  0.00000000  0.80594387  1
  O  O656  1  0.44405613  0.55594387  -0.00000000  1
  O  O657  1  0.80594387  0.05594387  0.75000000  1
  O  O658  1  0.94405613  0.19405613  0.25000000  1
  O  O659  1  0.30594387  0.69405613  0.50000000  1
  O  O660  1  0.50000000  0.55594387  0.94405613  1
  O  O661  1  0.75000000  0.19405613  0.44405613  1
  O  O662  1  0.25000000  0.05594387  0.30594387  1
  O  O663  1  0.00000000  0.69405613  0.80594387  1
  O  O664  1  0.44405613  0.50000000  0.05594387  1
  O  O665  1  0.94405613  0.75000000  0.69405613  1
  O  O666  1  0.80594387  0.25000000  0.55594387  1
  O  O667  1  0.30594387  0.00000000  0.19405613  1
  O  O668  1  0.55594387  0.44405613  -0.00000000  1
  O  O669  1  0.19405613  0.94405613  0.25000000  1
  O  O670  1  0.05594387  0.80594387  0.75000000  1
  O  O671  1  0.69405613  0.30594387  0.50000000  1
  S  S672  1  0.00000000  0.00000000  0.00000000  1
  S  S673  1  0.75000000  0.25000000  0.50000000  1
  S  S674  1  0.25000000  0.50000000  0.75000000  1
  S  S675  1  0.50000000  0.75000000  0.25000000  1
  S  S676  1  0.00000000  0.50000000  0.50000000  1
  S  S677  1  0.75000000  0.75000000  0.00000000  1
  S  S678  1  0.25000000  0.00000000  0.25000000  1
  S  S679  1  0.50000000  0.25000000  0.75000000  1
  S  S680  1  0.50000000  0.00000000  0.50000000  1
  S  S681  1  0.25000000  0.25000000  0.00000000  1
  S  S682  1  0.75000000  0.50000000  0.25000000  1
  S  S683  1  0.00000000  0.75000000  0.75000000  1
  S  S684  1  0.50000000  0.50000000  0.00000000  1
  S  S685  1  0.25000000  0.75000000  0.50000000  1
  S  S686  1  0.75000000  0.00000000  0.75000000  1
  S  S687  1  0.00000000  0.25000000  0.25000000  1
  Sr  Sr688  1  0.50000000  0.50000000  0.50000000  1
  Sr  Sr689  1  0.25000000  0.75000000  0.00000000  1
  Sr  Sr690  1  0.75000000  0.00000000  0.25000000  1
  Sr  Sr691  1  0.00000000  0.25000000  0.75000000  1
  Sr  Sr692  1  0.50000000  0.00000000  0.00000000  1
  Sr  Sr693  1  0.25000000  0.25000000  0.50000000  1
  Sr  Sr694  1  0.75000000  0.50000000  0.75000000  1
  Sr  Sr695  1  0.00000000  0.75000000  0.25000000  1
  Sr  Sr696  1  0.00000000  0.50000000  0.00000000  1
  Sr  Sr697  1  0.75000000  0.75000000  0.50000000  1
  Sr  Sr698  1  0.25000000  0.00000000  0.75000000  1
  Sr  Sr699  1  0.50000000  0.25000000  0.25000000  1
  Sr  Sr700  1  0.00000000  0.00000000  0.50000000  1
  Sr  Sr701  1  0.75000000  0.25000000  0.00000000  1
  Sr  Sr702  1  0.25000000  0.50000000  0.25000000  1
  Sr  Sr703  1  0.50000000  0.75000000  0.75000000  1
  Te  Te704  1  0.87585062  0.45682618  0.61923331  1
  Te  Te705  1  0.87414938  0.79317382  0.11923331  1
  Te  Te706  1  0.37414938  0.95682618  0.13076669  1
  Te  Te707  1  0.37585062  0.29317382  0.63076669  1
  Te  Te708  1  0.61923331  0.87585062  0.45682618  1
  Te  Te709  1  0.11923331  0.87414938  0.79317382  1
  Te  Te710  1  0.13076669  0.37414938  0.95682618  1
  Te  Te711  1  0.63076669  0.37585062  0.29317382  1
  Te  Te712  1  0.45682618  0.61923331  0.87585062  1
  Te  Te713  1  0.79317382  0.11923331  0.87414938  1
  Te  Te714  1  0.95682618  0.13076669  0.37414938  1
  Te  Te715  1  0.29317382  0.63076669  0.37585062  1
  Te  Te716  1  0.20682618  0.12585062  0.88076669  1
  Te  Te717  1  0.54317382  0.12414938  0.38076669  1
  Te  Te718  1  0.70682618  0.62414938  0.36923331  1
  Te  Te719  1  0.04317382  0.62585062  0.86923331  1
  Te  Te720  1  0.62585062  0.86923331  0.04317382  1
  Te  Te721  1  0.62414938  0.36923331  0.70682618  1
  Te  Te722  1  0.12414938  0.38076669  0.54317382  1
  Te  Te723  1  0.12585062  0.88076669  0.20682618  1
  Te  Te724  1  0.36923331  0.70682618  0.62414938  1
  Te  Te725  1  0.86923331  0.04317382  0.62585062  1
  Te  Te726  1  0.88076669  0.20682618  0.12585062  1
  Te  Te727  1  0.38076669  0.54317382  0.12414938  1
  Te  Te728  1  0.12414938  0.54317382  0.38076669  1
  Te  Te729  1  0.12585062  0.20682618  0.88076669  1
  Te  Te730  1  0.62585062  0.04317382  0.86923331  1
  Te  Te731  1  0.62414938  0.70682618  0.36923331  1
  Te  Te732  1  0.38076669  0.12414938  0.54317382  1
  Te  Te733  1  0.88076669  0.12585062  0.20682618  1
  Te  Te734  1  0.86923331  0.62585062  0.04317382  1
  Te  Te735  1  0.36923331  0.62414938  0.70682618  1
  Te  Te736  1  0.54317382  0.38076669  0.12414938  1
  Te  Te737  1  0.20682618  0.88076669  0.12585062  1
  Te  Te738  1  0.04317382  0.86923331  0.62585062  1
  Te  Te739  1  0.70682618  0.36923331  0.62414938  1
  Te  Te740  1  0.79317382  0.87414938  0.11923331  1
  Te  Te741  1  0.45682618  0.87585062  0.61923331  1
  Te  Te742  1  0.29317382  0.37585062  0.63076669  1
  Te  Te743  1  0.95682618  0.37414938  0.13076669  1
  Te  Te744  1  0.37414938  0.13076669  0.95682618  1
  Te  Te745  1  0.37585062  0.63076669  0.29317382  1
  Te  Te746  1  0.87585062  0.61923331  0.45682618  1
  Te  Te747  1  0.87414938  0.11923331  0.79317382  1
  Te  Te748  1  0.63076669  0.29317382  0.37585062  1
  Te  Te749  1  0.13076669  0.95682618  0.37414938  1
  Te  Te750  1  0.11923331  0.79317382  0.87414938  1
  Te  Te751  1  0.61923331  0.45682618  0.87585062  1
  Te  Te752  1  0.87585062  0.95682618  0.11923331  1
  Te  Te753  1  0.87414938  0.29317382  0.61923331  1
  Te  Te754  1  0.37414938  0.45682618  0.63076669  1
  Te  Te755  1  0.37585062  0.79317382  0.13076669  1
  Te  Te756  1  0.61923331  0.37585062  0.95682618  1
  Te  Te757  1  0.11923331  0.37414938  0.29317382  1
  Te  Te758  1  0.13076669  0.87414938  0.45682618  1
  Te  Te759  1  0.63076669  0.87585062  0.79317382  1
  Te  Te760  1  0.45682618  0.11923331  0.37585062  1
  Te  Te761  1  0.79317382  0.61923331  0.37414938  1
  Te  Te762  1  0.95682618  0.63076669  0.87414938  1
  Te  Te763  1  0.29317382  0.13076669  0.87585062  1
  Te  Te764  1  0.20682618  0.62585062  0.38076669  1
  Te  Te765  1  0.54317382  0.62414938  0.88076669  1
  Te  Te766  1  0.70682618  0.12414938  0.86923331  1
  Te  Te767  1  0.04317382  0.12585062  0.36923331  1
  Te  Te768  1  0.62585062  0.36923331  0.54317382  1
  Te  Te769  1  0.62414938  0.86923331  0.20682618  1
  Te  Te770  1  0.12414938  0.88076669  0.04317382  1
  Te  Te771  1  0.12585062  0.38076669  0.70682618  1
  Te  Te772  1  0.36923331  0.20682618  0.12414938  1
  Te  Te773  1  0.86923331  0.54317382  0.12585062  1
  Te  Te774  1  0.88076669  0.70682618  0.62585062  1
  Te  Te775  1  0.38076669  0.04317382  0.62414938  1
  Te  Te776  1  0.12414938  0.04317382  0.88076669  1
  Te  Te777  1  0.12585062  0.70682618  0.38076669  1
  Te  Te778  1  0.62585062  0.54317382  0.36923331  1
  Te  Te779  1  0.62414938  0.20682618  0.86923331  1
  Te  Te780  1  0.38076669  0.62414938  0.04317382  1
  Te  Te781  1  0.88076669  0.62585062  0.70682618  1
  Te  Te782  1  0.86923331  0.12585062  0.54317382  1
  Te  Te783  1  0.36923331  0.12414938  0.20682618  1
  Te  Te784  1  0.54317382  0.88076669  0.62414938  1
  Te  Te785  1  0.20682618  0.38076669  0.62585062  1
  Te  Te786  1  0.04317382  0.36923331  0.12585062  1
  Te  Te787  1  0.70682618  0.86923331  0.12414938  1
  Te  Te788  1  0.79317382  0.37414938  0.61923331  1
  Te  Te789  1  0.45682618  0.37585062  0.11923331  1
  Te  Te790  1  0.29317382  0.87585062  0.13076669  1
  Te  Te791  1  0.95682618  0.87414938  0.63076669  1
  Te  Te792  1  0.37414938  0.63076669  0.45682618  1
  Te  Te793  1  0.37585062  0.13076669  0.79317382  1
  Te  Te794  1  0.87585062  0.11923331  0.95682618  1
  Te  Te795  1  0.87414938  0.61923331  0.29317382  1
  Te  Te796  1  0.63076669  0.79317382  0.87585062  1
  Te  Te797  1  0.13076669  0.45682618  0.87414938  1
  Te  Te798  1  0.11923331  0.29317382  0.37414938  1
  Te  Te799  1  0.61923331  0.95682618  0.37585062  1
  Te  Te800  1  0.37585062  0.45682618  0.11923331  1
  Te  Te801  1  0.37414938  0.79317382  0.61923331  1
  Te  Te802  1  0.87414938  0.95682618  0.63076669  1
  Te  Te803  1  0.87585062  0.29317382  0.13076669  1
  Te  Te804  1  0.11923331  0.87585062  0.95682618  1
  Te  Te805  1  0.61923331  0.87414938  0.29317382  1
  Te  Te806  1  0.63076669  0.37414938  0.45682618  1
  Te  Te807  1  0.13076669  0.37585062  0.79317382  1
  Te  Te808  1  0.95682618  0.61923331  0.37585062  1
  Te  Te809  1  0.29317382  0.11923331  0.37414938  1
  Te  Te810  1  0.45682618  0.13076669  0.87414938  1
  Te  Te811  1  0.79317382  0.63076669  0.87585062  1
  Te  Te812  1  0.70682618  0.12585062  0.38076669  1
  Te  Te813  1  0.04317382  0.12414938  0.88076669  1
  Te  Te814  1  0.20682618  0.62414938  0.86923331  1
  Te  Te815  1  0.54317382  0.62585062  0.36923331  1
  Te  Te816  1  0.12585062  0.86923331  0.54317382  1
  Te  Te817  1  0.12414938  0.36923331  0.20682618  1
  Te  Te818  1  0.62414938  0.38076669  0.04317382  1
  Te  Te819  1  0.62585062  0.88076669  0.70682618  1
  Te  Te820  1  0.86923331  0.70682618  0.12414938  1
  Te  Te821  1  0.36923331  0.04317382  0.12585062  1
  Te  Te822  1  0.38076669  0.20682618  0.62585062  1
  Te  Te823  1  0.88076669  0.54317382  0.62414938  1
  Te  Te824  1  0.62414938  0.54317382  0.88076669  1
  Te  Te825  1  0.62585062  0.20682618  0.38076669  1
  Te  Te826  1  0.12585062  0.04317382  0.36923331  1
  Te  Te827  1  0.12414938  0.70682618  0.86923331  1
  Te  Te828  1  0.88076669  0.12414938  0.04317382  1
  Te  Te829  1  0.38076669  0.12585062  0.70682618  1
  Te  Te830  1  0.36923331  0.62585062  0.54317382  1
  Te  Te831  1  0.86923331  0.62414938  0.20682618  1
  Te  Te832  1  0.04317382  0.38076669  0.62414938  1
  Te  Te833  1  0.70682618  0.88076669  0.62585062  1
  Te  Te834  1  0.54317382  0.86923331  0.12585062  1
  Te  Te835  1  0.20682618  0.36923331  0.12414938  1
  Te  Te836  1  0.29317382  0.87414938  0.61923331  1
  Te  Te837  1  0.95682618  0.87585062  0.11923331  1
  Te  Te838  1  0.79317382  0.37585062  0.13076669  1
  Te  Te839  1  0.45682618  0.37414938  0.63076669  1
  Te  Te840  1  0.87414938  0.13076669  0.45682618  1
  Te  Te841  1  0.87585062  0.63076669  0.79317382  1
  Te  Te842  1  0.37585062  0.61923331  0.95682618  1
  Te  Te843  1  0.37414938  0.11923331  0.29317382  1
  Te  Te844  1  0.13076669  0.29317382  0.87585062  1
  Te  Te845  1  0.63076669  0.95682618  0.87414938  1
  Te  Te846  1  0.61923331  0.79317382  0.37414938  1
  Te  Te847  1  0.11923331  0.45682618  0.37585062  1
  Te  Te848  1  0.37585062  0.95682618  0.61923331  1
  Te  Te849  1  0.37414938  0.29317382  0.11923331  1
  Te  Te850  1  0.87414938  0.45682618  0.13076669  1
  Te  Te851  1  0.87585062  0.79317382  0.63076669  1
  Te  Te852  1  0.11923331  0.37585062  0.45682618  1
  Te  Te853  1  0.61923331  0.37414938  0.79317382  1
  Te  Te854  1  0.63076669  0.87414938  0.95682618  1
  Te  Te855  1  0.13076669  0.87585062  0.29317382  1
  Te  Te856  1  0.95682618  0.11923331  0.87585062  1
  Te  Te857  1  0.29317382  0.61923331  0.87414938  1
  Te  Te858  1  0.45682618  0.63076669  0.37414938  1
  Te  Te859  1  0.79317382  0.13076669  0.37585062  1
  Te  Te860  1  0.70682618  0.62585062  0.88076669  1
  Te  Te861  1  0.04317382  0.62414938  0.38076669  1
  Te  Te862  1  0.20682618  0.12414938  0.36923331  1
  Te  Te863  1  0.54317382  0.12585062  0.86923331  1
  Te  Te864  1  0.12585062  0.36923331  0.04317382  1
  Te  Te865  1  0.12414938  0.86923331  0.70682618  1
  Te  Te866  1  0.62414938  0.88076669  0.54317382  1
  Te  Te867  1  0.62585062  0.38076669  0.20682618  1
  Te  Te868  1  0.86923331  0.20682618  0.62414938  1
  Te  Te869  1  0.36923331  0.54317382  0.62585062  1
  Te  Te870  1  0.38076669  0.70682618  0.12585062  1
  Te  Te871  1  0.88076669  0.04317382  0.12414938  1
  Te  Te872  1  0.62414938  0.04317382  0.38076669  1
  Te  Te873  1  0.62585062  0.70682618  0.88076669  1
  Te  Te874  1  0.12585062  0.54317382  0.86923331  1
  Te  Te875  1  0.12414938  0.20682618  0.36923331  1
  Te  Te876  1  0.88076669  0.62414938  0.54317382  1
  Te  Te877  1  0.38076669  0.62585062  0.20682618  1
  Te  Te878  1  0.36923331  0.12585062  0.04317382  1
  Te  Te879  1  0.86923331  0.12414938  0.70682618  1
  Te  Te880  1  0.04317382  0.88076669  0.12414938  1
  Te  Te881  1  0.70682618  0.38076669  0.12585062  1
  Te  Te882  1  0.54317382  0.36923331  0.62585062  1
  Te  Te883  1  0.20682618  0.86923331  0.62414938  1
  Te  Te884  1  0.29317382  0.37414938  0.11923331  1
  Te  Te885  1  0.95682618  0.37585062  0.61923331  1
  Te  Te886  1  0.79317382  0.87585062  0.63076669  1
  Te  Te887  1  0.45682618  0.87414938  0.13076669  1
  Te  Te888  1  0.87414938  0.63076669  0.95682618  1
  Te  Te889  1  0.87585062  0.13076669  0.29317382  1
  Te  Te890  1  0.37585062  0.11923331  0.45682618  1
  Te  Te891  1  0.37414938  0.61923331  0.79317382  1
  Te  Te892  1  0.13076669  0.79317382  0.37585062  1
  Te  Te893  1  0.63076669  0.45682618  0.37414938  1
  Te  Te894  1  0.61923331  0.29317382  0.87414938  1
  Te  Te895  1  0.11923331  0.95682618  0.87585062  1
