# generated using pymatgen
data_Li12Zr6SnP4(BrO2)12
_symmetry_space_group_name_H-M   'P 1'
_cell_length_a   27.23347657
_cell_length_b   27.23347657
_cell_length_c   27.23347657
_cell_angle_alpha   90.00000000
_cell_angle_beta   90.00000000
_cell_angle_gamma   90.00000000
_symmetry_Int_Tables_number   1
_chemical_formula_structural   Li12Zr6SnP4(BrO2)12
_chemical_formula_sum   'Li192 Zr96 Sn16 P64 Br192 O384'
_cell_volume   20198.04139259
_cell_formula_units_Z   16
loop_
 _symmetry_equiv_pos_site_id
 _symmetry_equiv_pos_as_xyz
  1  'x, y, z'
loop_
 _atom_site_type_symbol
 _atom_site_label
 _atom_site_symmetry_multiplicity
 _atom_site_fract_x
 _atom_site_fract_y
 _atom_site_fract_z
 _atom_site_occupancy
  Br  Br0  1  0.11106589  0.25000000  0.25000000  1
  Br  Br1  1  0.88893411  0.75000000  0.25000000  1
  Br  Br2  1  0.25000000  0.11106589  0.25000000  1
  Br  Br3  1  0.25000000  0.88893411  0.75000000  1
  Br  Br4  1  0.25000000  0.25000000  0.11106589  1
  Br  Br5  1  0.75000000  0.25000000  0.88893411  1
  Br  Br6  1  0.11106589  0.75000000  0.75000000  1
  Br  Br7  1  0.88893411  0.25000000  0.75000000  1
  Br  Br8  1  0.25000000  0.61106589  0.75000000  1
  Br  Br9  1  0.25000000  0.38893411  0.25000000  1
  Br  Br10  1  0.25000000  0.75000000  0.61106589  1
  Br  Br11  1  0.75000000  0.75000000  0.38893411  1
  Br  Br12  1  0.61106589  0.25000000  0.75000000  1
  Br  Br13  1  0.38893411  0.75000000  0.75000000  1
  Br  Br14  1  0.75000000  0.11106589  0.75000000  1
  Br  Br15  1  0.75000000  0.88893411  0.25000000  1
  Br  Br16  1  0.75000000  0.25000000  0.61106589  1
  Br  Br17  1  0.25000000  0.25000000  0.38893411  1
  Br  Br18  1  0.61106589  0.75000000  0.25000000  1
  Br  Br19  1  0.38893411  0.25000000  0.25000000  1
  Br  Br20  1  0.75000000  0.61106589  0.25000000  1
  Br  Br21  1  0.75000000  0.38893411  0.75000000  1
  Br  Br22  1  0.75000000  0.75000000  0.11106589  1
  Br  Br23  1  0.25000000  0.75000000  0.88893411  1
  Br  Br24  1  0.50000000  0.50000000  0.50000000  1
  Br  Br25  1  0.50000000  0.00000000  0.00000000  1
  Br  Br26  1  0.00000000  0.50000000  0.00000000  1
  Br  Br27  1  0.00000000  0.00000000  0.50000000  1
  Br  Br28  1  0.85199528  0.85199528  0.47683816  1
  Br  Br29  1  0.14800472  0.14800472  0.47683816  1
  Br  Br30  1  0.14800472  0.85199528  0.52316184  1
  Br  Br31  1  0.85199528  0.14800472  0.52316184  1
  Br  Br32  1  0.47683816  0.85199528  0.85199528  1
  Br  Br33  1  0.47683816  0.14800472  0.14800472  1
  Br  Br34  1  0.52316184  0.14800472  0.85199528  1
  Br  Br35  1  0.52316184  0.85199528  0.14800472  1
  Br  Br36  1  0.85199528  0.47683816  0.85199528  1
  Br  Br37  1  0.14800472  0.47683816  0.14800472  1
  Br  Br38  1  0.85199528  0.52316184  0.14800472  1
  Br  Br39  1  0.14800472  0.52316184  0.85199528  1
  Br  Br40  1  0.85199528  0.35199528  0.97683816  1
  Br  Br41  1  0.14800472  0.64800472  0.97683816  1
  Br  Br42  1  0.14800472  0.35199528  0.02316184  1
  Br  Br43  1  0.85199528  0.64800472  0.02316184  1
  Br  Br44  1  0.47683816  0.35199528  0.35199528  1
  Br  Br45  1  0.47683816  0.64800472  0.64800472  1
  Br  Br46  1  0.52316184  0.64800472  0.35199528  1
  Br  Br47  1  0.52316184  0.35199528  0.64800472  1
  Br  Br48  1  0.85199528  0.97683816  0.35199528  1
  Br  Br49  1  0.14800472  0.97683816  0.64800472  1
  Br  Br50  1  0.85199528  0.02316184  0.64800472  1
  Br  Br51  1  0.14800472  0.02316184  0.35199528  1
  Br  Br52  1  0.35199528  0.85199528  0.97683816  1
  Br  Br53  1  0.64800472  0.14800472  0.97683816  1
  Br  Br54  1  0.64800472  0.85199528  0.02316184  1
  Br  Br55  1  0.35199528  0.14800472  0.02316184  1
  Br  Br56  1  0.97683816  0.85199528  0.35199528  1
  Br  Br57  1  0.97683816  0.14800472  0.64800472  1
  Br  Br58  1  0.02316184  0.14800472  0.35199528  1
  Br  Br59  1  0.02316184  0.85199528  0.64800472  1
  Br  Br60  1  0.35199528  0.47683816  0.35199528  1
  Br  Br61  1  0.64800472  0.47683816  0.64800472  1
  Br  Br62  1  0.35199528  0.52316184  0.64800472  1
  Br  Br63  1  0.64800472  0.52316184  0.35199528  1
  Br  Br64  1  0.35199528  0.35199528  0.47683816  1
  Br  Br65  1  0.64800472  0.64800472  0.47683816  1
  Br  Br66  1  0.64800472  0.35199528  0.52316184  1
  Br  Br67  1  0.35199528  0.64800472  0.52316184  1
  Br  Br68  1  0.97683816  0.35199528  0.85199528  1
  Br  Br69  1  0.97683816  0.64800472  0.14800472  1
  Br  Br70  1  0.02316184  0.64800472  0.85199528  1
  Br  Br71  1  0.02316184  0.35199528  0.14800472  1
  Br  Br72  1  0.35199528  0.97683816  0.85199528  1
  Br  Br73  1  0.64800472  0.97683816  0.14800472  1
  Br  Br74  1  0.35199528  0.02316184  0.14800472  1
  Br  Br75  1  0.64800472  0.02316184  0.85199528  1
  Br  Br76  1  0.72731527  0.38769819  0.45744957  1
  Br  Br77  1  0.27268473  0.61230181  0.45744957  1
  Br  Br78  1  0.27268473  0.38769819  0.54255043  1
  Br  Br79  1  0.72731527  0.61230181  0.54255043  1
  Br  Br80  1  0.45744957  0.72731527  0.38769819  1
  Br  Br81  1  0.45744957  0.27268473  0.61230181  1
  Br  Br82  1  0.54255043  0.27268473  0.38769819  1
  Br  Br83  1  0.54255043  0.72731527  0.61230181  1
  Br  Br84  1  0.38769819  0.45744957  0.72731527  1
  Br  Br85  1  0.61230181  0.45744957  0.27268473  1
  Br  Br86  1  0.38769819  0.54255043  0.27268473  1
  Br  Br87  1  0.61230181  0.54255043  0.72731527  1
  Br  Br88  1  0.38769819  0.72731527  0.45744957  1
  Br  Br89  1  0.61230181  0.27268473  0.45744957  1
  Br  Br90  1  0.38769819  0.27268473  0.54255043  1
  Br  Br91  1  0.61230181  0.72731527  0.54255043  1
  Br  Br92  1  0.72731527  0.45744957  0.38769819  1
  Br  Br93  1  0.27268473  0.45744957  0.61230181  1
  Br  Br94  1  0.27268473  0.54255043  0.38769819  1
  Br  Br95  1  0.72731527  0.54255043  0.61230181  1
  Br  Br96  1  0.45744957  0.38769819  0.72731527  1
  Br  Br97  1  0.45744957  0.61230181  0.27268473  1
  Br  Br98  1  0.54255043  0.38769819  0.27268473  1
  Br  Br99  1  0.54255043  0.61230181  0.72731527  1
  Br  Br100  1  0.72731527  0.88769819  0.95744957  1
  Br  Br101  1  0.27268473  0.11230181  0.95744957  1
  Br  Br102  1  0.27268473  0.88769819  0.04255043  1
  Br  Br103  1  0.72731527  0.11230181  0.04255043  1
  Br  Br104  1  0.45744957  0.22731527  0.88769819  1
  Br  Br105  1  0.45744957  0.77268473  0.11230181  1
  Br  Br106  1  0.54255043  0.77268473  0.88769819  1
  Br  Br107  1  0.54255043  0.22731527  0.11230181  1
  Br  Br108  1  0.38769819  0.95744957  0.22731527  1
  Br  Br109  1  0.61230181  0.95744957  0.77268473  1
  Br  Br110  1  0.38769819  0.04255043  0.77268473  1
  Br  Br111  1  0.61230181  0.04255043  0.22731527  1
  Br  Br112  1  0.38769819  0.22731527  0.95744957  1
  Br  Br113  1  0.61230181  0.77268473  0.95744957  1
  Br  Br114  1  0.38769819  0.77268473  0.04255043  1
  Br  Br115  1  0.61230181  0.22731527  0.04255043  1
  Br  Br116  1  0.72731527  0.95744957  0.88769819  1
  Br  Br117  1  0.27268473  0.95744957  0.11230181  1
  Br  Br118  1  0.27268473  0.04255043  0.88769819  1
  Br  Br119  1  0.72731527  0.04255043  0.11230181  1
  Br  Br120  1  0.45744957  0.88769819  0.22731527  1
  Br  Br121  1  0.45744957  0.11230181  0.77268473  1
  Br  Br122  1  0.54255043  0.88769819  0.77268473  1
  Br  Br123  1  0.54255043  0.11230181  0.22731527  1
  Br  Br124  1  0.22731527  0.38769819  0.95744957  1
  Br  Br125  1  0.77268473  0.61230181  0.95744957  1
  Br  Br126  1  0.77268473  0.38769819  0.04255043  1
  Br  Br127  1  0.22731527  0.61230181  0.04255043  1
  Br  Br128  1  0.95744957  0.72731527  0.88769819  1
  Br  Br129  1  0.95744957  0.27268473  0.11230181  1
  Br  Br130  1  0.04255043  0.27268473  0.88769819  1
  Br  Br131  1  0.04255043  0.72731527  0.11230181  1
  Br  Br132  1  0.88769819  0.45744957  0.22731527  1
  Br  Br133  1  0.11230181  0.45744957  0.77268473  1
  Br  Br134  1  0.88769819  0.54255043  0.77268473  1
  Br  Br135  1  0.11230181  0.54255043  0.22731527  1
  Br  Br136  1  0.88769819  0.72731527  0.95744957  1
  Br  Br137  1  0.11230181  0.27268473  0.95744957  1
  Br  Br138  1  0.88769819  0.27268473  0.04255043  1
  Br  Br139  1  0.11230181  0.72731527  0.04255043  1
  Br  Br140  1  0.22731527  0.45744957  0.88769819  1
  Br  Br141  1  0.77268473  0.45744957  0.11230181  1
  Br  Br142  1  0.77268473  0.54255043  0.88769819  1
  Br  Br143  1  0.22731527  0.54255043  0.11230181  1
  Br  Br144  1  0.95744957  0.38769819  0.22731527  1
  Br  Br145  1  0.95744957  0.61230181  0.77268473  1
  Br  Br146  1  0.04255043  0.38769819  0.77268473  1
  Br  Br147  1  0.04255043  0.61230181  0.22731527  1
  Br  Br148  1  0.22731527  0.88769819  0.45744957  1
  Br  Br149  1  0.77268473  0.11230181  0.45744957  1
  Br  Br150  1  0.77268473  0.88769819  0.54255043  1
  Br  Br151  1  0.22731527  0.11230181  0.54255043  1
  Br  Br152  1  0.95744957  0.22731527  0.38769819  1
  Br  Br153  1  0.95744957  0.77268473  0.61230181  1
  Br  Br154  1  0.04255043  0.77268473  0.38769819  1
  Br  Br155  1  0.04255043  0.22731527  0.61230181  1
  Br  Br156  1  0.88769819  0.95744957  0.72731527  1
  Br  Br157  1  0.11230181  0.95744957  0.27268473  1
  Br  Br158  1  0.88769819  0.04255043  0.27268473  1
  Br  Br159  1  0.11230181  0.04255043  0.72731527  1
  Br  Br160  1  0.88769819  0.22731527  0.45744957  1
  Br  Br161  1  0.11230181  0.77268473  0.45744957  1
  Br  Br162  1  0.88769819  0.77268473  0.54255043  1
  Br  Br163  1  0.11230181  0.22731527  0.54255043  1
  Br  Br164  1  0.22731527  0.95744957  0.38769819  1
  Br  Br165  1  0.77268473  0.95744957  0.61230181  1
  Br  Br166  1  0.77268473  0.04255043  0.38769819  1
  Br  Br167  1  0.22731527  0.04255043  0.61230181  1
  Br  Br168  1  0.95744957  0.88769819  0.72731527  1
  Br  Br169  1  0.95744957  0.11230181  0.27268473  1
  Br  Br170  1  0.04255043  0.88769819  0.27268473  1
  Br  Br171  1  0.04255043  0.11230181  0.72731527  1
  Br  Br172  1  0.25000000  0.25000000  0.25000000  1
  Br  Br173  1  0.25000000  0.75000000  0.75000000  1
  Br  Br174  1  0.75000000  0.25000000  0.75000000  1
  Br  Br175  1  0.75000000  0.75000000  0.25000000  1
  Br  Br176  1  0.98240281  0.98240281  0.98240281  1
  Br  Br177  1  0.01759719  0.01759719  0.98240281  1
  Br  Br178  1  0.01759719  0.98240281  0.01759719  1
  Br  Br179  1  0.98240281  0.01759719  0.01759719  1
  Br  Br180  1  0.98240281  0.48240281  0.48240281  1
  Br  Br181  1  0.01759719  0.51759719  0.48240281  1
  Br  Br182  1  0.01759719  0.48240281  0.51759719  1
  Br  Br183  1  0.98240281  0.51759719  0.51759719  1
  Br  Br184  1  0.48240281  0.98240281  0.48240281  1
  Br  Br185  1  0.51759719  0.01759719  0.48240281  1
  Br  Br186  1  0.51759719  0.98240281  0.51759719  1
  Br  Br187  1  0.48240281  0.01759719  0.51759719  1
  Br  Br188  1  0.48240281  0.48240281  0.98240281  1
  Br  Br189  1  0.51759719  0.51759719  0.98240281  1
  Br  Br190  1  0.51759719  0.48240281  0.01759719  1
  Br  Br191  1  0.48240281  0.51759719  0.01759719  1
  Li  Li192  1  0.57030946  0.61033104  0.82951176  1
  Li  Li193  1  0.42969054  0.38966896  0.82951176  1
  Li  Li194  1  0.42969054  0.61033104  0.17048824  1
  Li  Li195  1  0.57030946  0.38966896  0.17048824  1
  Li  Li196  1  0.82951176  0.57030946  0.61033104  1
  Li  Li197  1  0.82951176  0.42969054  0.38966896  1
  Li  Li198  1  0.17048824  0.42969054  0.61033104  1
  Li  Li199  1  0.17048824  0.57030946  0.38966896  1
  Li  Li200  1  0.61033104  0.82951176  0.57030946  1
  Li  Li201  1  0.38966896  0.82951176  0.42969054  1
  Li  Li202  1  0.61033104  0.17048824  0.42969054  1
  Li  Li203  1  0.38966896  0.17048824  0.57030946  1
  Li  Li204  1  0.61033104  0.57030946  0.82951176  1
  Li  Li205  1  0.38966896  0.42969054  0.82951176  1
  Li  Li206  1  0.61033104  0.42969054  0.17048824  1
  Li  Li207  1  0.38966896  0.57030946  0.17048824  1
  Li  Li208  1  0.57030946  0.82951176  0.61033104  1
  Li  Li209  1  0.42969054  0.82951176  0.38966896  1
  Li  Li210  1  0.42969054  0.17048824  0.61033104  1
  Li  Li211  1  0.57030946  0.17048824  0.38966896  1
  Li  Li212  1  0.82951176  0.61033104  0.57030946  1
  Li  Li213  1  0.82951176  0.38966896  0.42969054  1
  Li  Li214  1  0.17048824  0.61033104  0.42969054  1
  Li  Li215  1  0.17048824  0.38966896  0.57030946  1
  Li  Li216  1  0.57030946  0.11033104  0.32951176  1
  Li  Li217  1  0.42969054  0.88966896  0.32951176  1
  Li  Li218  1  0.42969054  0.11033104  0.67048824  1
  Li  Li219  1  0.57030946  0.88966896  0.67048824  1
  Li  Li220  1  0.82951176  0.07030946  0.11033104  1
  Li  Li221  1  0.82951176  0.92969054  0.88966896  1
  Li  Li222  1  0.17048824  0.92969054  0.11033104  1
  Li  Li223  1  0.17048824  0.07030946  0.88966896  1
  Li  Li224  1  0.61033104  0.32951176  0.07030946  1
  Li  Li225  1  0.38966896  0.32951176  0.92969054  1
  Li  Li226  1  0.61033104  0.67048824  0.92969054  1
  Li  Li227  1  0.38966896  0.67048824  0.07030946  1
  Li  Li228  1  0.61033104  0.07030946  0.32951176  1
  Li  Li229  1  0.38966896  0.92969054  0.32951176  1
  Li  Li230  1  0.61033104  0.92969054  0.67048824  1
  Li  Li231  1  0.38966896  0.07030946  0.67048824  1
  Li  Li232  1  0.57030946  0.32951176  0.11033104  1
  Li  Li233  1  0.42969054  0.32951176  0.88966896  1
  Li  Li234  1  0.42969054  0.67048824  0.11033104  1
  Li  Li235  1  0.57030946  0.67048824  0.88966896  1
  Li  Li236  1  0.82951176  0.11033104  0.07030946  1
  Li  Li237  1  0.82951176  0.88966896  0.92969054  1
  Li  Li238  1  0.17048824  0.11033104  0.92969054  1
  Li  Li239  1  0.17048824  0.88966896  0.07030946  1
  Li  Li240  1  0.07030946  0.61033104  0.32951176  1
  Li  Li241  1  0.92969054  0.38966896  0.32951176  1
  Li  Li242  1  0.92969054  0.61033104  0.67048824  1
  Li  Li243  1  0.07030946  0.38966896  0.67048824  1
  Li  Li244  1  0.32951176  0.57030946  0.11033104  1
  Li  Li245  1  0.32951176  0.42969054  0.88966896  1
  Li  Li246  1  0.67048824  0.42969054  0.11033104  1
  Li  Li247  1  0.67048824  0.57030946  0.88966896  1
  Li  Li248  1  0.11033104  0.82951176  0.07030946  1
  Li  Li249  1  0.88966896  0.82951176  0.92969054  1
  Li  Li250  1  0.11033104  0.17048824  0.92969054  1
  Li  Li251  1  0.88966896  0.17048824  0.07030946  1
  Li  Li252  1  0.11033104  0.57030946  0.32951176  1
  Li  Li253  1  0.88966896  0.42969054  0.32951176  1
  Li  Li254  1  0.11033104  0.42969054  0.67048824  1
  Li  Li255  1  0.88966896  0.57030946  0.67048824  1
  Li  Li256  1  0.07030946  0.82951176  0.11033104  1
  Li  Li257  1  0.92969054  0.82951176  0.88966896  1
  Li  Li258  1  0.92969054  0.17048824  0.11033104  1
  Li  Li259  1  0.07030946  0.17048824  0.88966896  1
  Li  Li260  1  0.32951176  0.61033104  0.07030946  1
  Li  Li261  1  0.32951176  0.38966896  0.92969054  1
  Li  Li262  1  0.67048824  0.61033104  0.92969054  1
  Li  Li263  1  0.67048824  0.38966896  0.07030946  1
  Li  Li264  1  0.07030946  0.11033104  0.82951176  1
  Li  Li265  1  0.92969054  0.88966896  0.82951176  1
  Li  Li266  1  0.92969054  0.11033104  0.17048824  1
  Li  Li267  1  0.07030946  0.88966896  0.17048824  1
  Li  Li268  1  0.32951176  0.07030946  0.61033104  1
  Li  Li269  1  0.32951176  0.92969054  0.38966896  1
  Li  Li270  1  0.67048824  0.92969054  0.61033104  1
  Li  Li271  1  0.67048824  0.07030946  0.38966896  1
  Li  Li272  1  0.11033104  0.32951176  0.57030946  1
  Li  Li273  1  0.88966896  0.32951176  0.42969054  1
  Li  Li274  1  0.11033104  0.67048824  0.42969054  1
  Li  Li275  1  0.88966896  0.67048824  0.57030946  1
  Li  Li276  1  0.11033104  0.07030946  0.82951176  1
  Li  Li277  1  0.88966896  0.92969054  0.82951176  1
  Li  Li278  1  0.11033104  0.92969054  0.17048824  1
  Li  Li279  1  0.88966896  0.07030946  0.17048824  1
  Li  Li280  1  0.07030946  0.32951176  0.61033104  1
  Li  Li281  1  0.92969054  0.32951176  0.38966896  1
  Li  Li282  1  0.92969054  0.67048824  0.61033104  1
  Li  Li283  1  0.07030946  0.67048824  0.38966896  1
  Li  Li284  1  0.32951176  0.11033104  0.57030946  1
  Li  Li285  1  0.32951176  0.88966896  0.42969054  1
  Li  Li286  1  0.67048824  0.11033104  0.42969054  1
  Li  Li287  1  0.67048824  0.88966896  0.57030946  1
  Li  Li288  1  0.49647011  0.85528448  0.94474694  1
  Li  Li289  1  0.50352989  0.14471552  0.94474694  1
  Li  Li290  1  0.50352989  0.85528448  0.05525306  1
  Li  Li291  1  0.49647011  0.14471552  0.05525306  1
  Li  Li292  1  0.94474694  0.49647011  0.85528448  1
  Li  Li293  1  0.94474694  0.50352989  0.14471552  1
  Li  Li294  1  0.05525306  0.50352989  0.85528448  1
  Li  Li295  1  0.05525306  0.49647011  0.14471552  1
  Li  Li296  1  0.85528448  0.94474694  0.49647011  1
  Li  Li297  1  0.14471552  0.94474694  0.50352989  1
  Li  Li298  1  0.85528448  0.05525306  0.50352989  1
  Li  Li299  1  0.14471552  0.05525306  0.49647011  1
  Li  Li300  1  0.85528448  0.49647011  0.94474694  1
  Li  Li301  1  0.14471552  0.50352989  0.94474694  1
  Li  Li302  1  0.85528448  0.50352989  0.05525306  1
  Li  Li303  1  0.14471552  0.49647011  0.05525306  1
  Li  Li304  1  0.49647011  0.94474694  0.85528448  1
  Li  Li305  1  0.50352989  0.94474694  0.14471552  1
  Li  Li306  1  0.50352989  0.05525306  0.85528448  1
  Li  Li307  1  0.49647011  0.05525306  0.14471552  1
  Li  Li308  1  0.94474694  0.85528448  0.49647011  1
  Li  Li309  1  0.94474694  0.14471552  0.50352989  1
  Li  Li310  1  0.05525306  0.85528448  0.50352989  1
  Li  Li311  1  0.05525306  0.14471552  0.49647011  1
  Li  Li312  1  0.49647011  0.35528448  0.44474694  1
  Li  Li313  1  0.50352989  0.64471552  0.44474694  1
  Li  Li314  1  0.50352989  0.35528448  0.55525306  1
  Li  Li315  1  0.49647011  0.64471552  0.55525306  1
  Li  Li316  1  0.94474694  0.99647011  0.35528448  1
  Li  Li317  1  0.94474694  0.00352989  0.64471552  1
  Li  Li318  1  0.05525306  0.00352989  0.35528448  1
  Li  Li319  1  0.05525306  0.99647011  0.64471552  1
  Li  Li320  1  0.85528448  0.44474694  0.99647011  1
  Li  Li321  1  0.14471552  0.44474694  0.00352989  1
  Li  Li322  1  0.85528448  0.55525306  0.00352989  1
  Li  Li323  1  0.14471552  0.55525306  0.99647011  1
  Li  Li324  1  0.85528448  0.99647011  0.44474694  1
  Li  Li325  1  0.14471552  0.00352989  0.44474694  1
  Li  Li326  1  0.85528448  0.00352989  0.55525306  1
  Li  Li327  1  0.14471552  0.99647011  0.55525306  1
  Li  Li328  1  0.49647011  0.44474694  0.35528448  1
  Li  Li329  1  0.50352989  0.44474694  0.64471552  1
  Li  Li330  1  0.50352989  0.55525306  0.35528448  1
  Li  Li331  1  0.49647011  0.55525306  0.64471552  1
  Li  Li332  1  0.94474694  0.35528448  0.99647011  1
  Li  Li333  1  0.94474694  0.64471552  0.00352989  1
  Li  Li334  1  0.05525306  0.35528448  0.00352989  1
  Li  Li335  1  0.05525306  0.64471552  0.99647011  1
  Li  Li336  1  0.99647011  0.85528448  0.44474694  1
  Li  Li337  1  0.00352989  0.14471552  0.44474694  1
  Li  Li338  1  0.00352989  0.85528448  0.55525306  1
  Li  Li339  1  0.99647011  0.14471552  0.55525306  1
  Li  Li340  1  0.44474694  0.49647011  0.35528448  1
  Li  Li341  1  0.44474694  0.50352989  0.64471552  1
  Li  Li342  1  0.55525306  0.50352989  0.35528448  1
  Li  Li343  1  0.55525306  0.49647011  0.64471552  1
  Li  Li344  1  0.35528448  0.94474694  0.99647011  1
  Li  Li345  1  0.64471552  0.94474694  0.00352989  1
  Li  Li346  1  0.35528448  0.05525306  0.00352989  1
  Li  Li347  1  0.64471552  0.05525306  0.99647011  1
  Li  Li348  1  0.35528448  0.49647011  0.44474694  1
  Li  Li349  1  0.64471552  0.50352989  0.44474694  1
  Li  Li350  1  0.35528448  0.50352989  0.55525306  1
  Li  Li351  1  0.64471552  0.49647011  0.55525306  1
  Li  Li352  1  0.99647011  0.94474694  0.35528448  1
  Li  Li353  1  0.00352989  0.94474694  0.64471552  1
  Li  Li354  1  0.00352989  0.05525306  0.35528448  1
  Li  Li355  1  0.99647011  0.05525306  0.64471552  1
  Li  Li356  1  0.44474694  0.85528448  0.99647011  1
  Li  Li357  1  0.44474694  0.14471552  0.00352989  1
  Li  Li358  1  0.55525306  0.85528448  0.00352989  1
  Li  Li359  1  0.55525306  0.14471552  0.99647011  1
  Li  Li360  1  0.99647011  0.35528448  0.94474694  1
  Li  Li361  1  0.00352989  0.64471552  0.94474694  1
  Li  Li362  1  0.00352989  0.35528448  0.05525306  1
  Li  Li363  1  0.99647011  0.64471552  0.05525306  1
  Li  Li364  1  0.44474694  0.99647011  0.85528448  1
  Li  Li365  1  0.44474694  0.00352989  0.14471552  1
  Li  Li366  1  0.55525306  0.00352989  0.85528448  1
  Li  Li367  1  0.55525306  0.99647011  0.14471552  1
  Li  Li368  1  0.35528448  0.44474694  0.49647011  1
  Li  Li369  1  0.64471552  0.44474694  0.50352989  1
  Li  Li370  1  0.35528448  0.55525306  0.50352989  1
  Li  Li371  1  0.64471552  0.55525306  0.49647011  1
  Li  Li372  1  0.35528448  0.99647011  0.94474694  1
  Li  Li373  1  0.64471552  0.00352989  0.94474694  1
  Li  Li374  1  0.35528448  0.00352989  0.05525306  1
  Li  Li375  1  0.64471552  0.99647011  0.05525306  1
  Li  Li376  1  0.99647011  0.44474694  0.85528448  1
  Li  Li377  1  0.00352989  0.44474694  0.14471552  1
  Li  Li378  1  0.00352989  0.55525306  0.85528448  1
  Li  Li379  1  0.99647011  0.55525306  0.14471552  1
  Li  Li380  1  0.44474694  0.35528448  0.49647011  1
  Li  Li381  1  0.44474694  0.64471552  0.50352989  1
  Li  Li382  1  0.55525306  0.35528448  0.50352989  1
  Li  Li383  1  0.55525306  0.64471552  0.49647011  1
  O  O384  1  0.86288854  0.49739449  0.47700973  1
  O  O385  1  -0.86288854  -0.49739449  0.47700973  1
  O  O386  1  -0.86288854  0.49739449  -0.47700973  1
  O  O387  1  0.86288854  -0.49739449  -0.47700973  1
  O  O388  1  0.47700973  0.86288854  0.49739449  1
  O  O389  1  0.47700973  -0.86288854  -0.49739449  1
  O  O390  1  -0.47700973  -0.86288854  0.49739449  1
  O  O391  1  -0.47700973  0.86288854  -0.49739449  1
  O  O392  1  0.49739449  0.47700973  0.86288854  1
  O  O393  1  -0.49739449  0.47700973  -0.86288854  1
  O  O394  1  0.49739449  -0.47700973  -0.86288854  1
  O  O395  1  -0.49739449  -0.47700973  0.86288854  1
  O  O396  1  0.49739449  0.86288854  0.47700973  1
  O  O397  1  -0.49739449  -0.86288854  0.47700973  1
  O  O398  1  0.49739449  -0.86288854  -0.47700973  1
  O  O399  1  -0.49739449  0.86288854  -0.47700973  1
  O  O400  1  0.86288854  0.47700973  0.49739449  1
  O  O401  1  -0.86288854  0.47700973  -0.49739449  1
  O  O402  1  -0.86288854  -0.47700973  0.49739449  1
  O  O403  1  0.86288854  -0.47700973  -0.49739449  1
  O  O404  1  0.47700973  0.49739449  0.86288854  1
  O  O405  1  0.47700973  -0.49739449  -0.86288854  1
  O  O406  1  -0.47700973  0.49739449  -0.86288854  1
  O  O407  1  -0.47700973  -0.49739449  0.86288854  1
  O  O408  1  0.86288854  0.99739449  0.97700973  1
  O  O409  1  -0.86288854  0.00260551  0.97700973  1
  O  O410  1  -0.86288854  0.99739449  0.02299027  1
  O  O411  1  0.86288854  0.00260551  0.02299027  1
  O  O412  1  0.47700973  1.36288854  0.99739449  1
  O  O413  1  0.47700973  -0.36288854  0.00260551  1
  O  O414  1  -0.47700973  -0.36288854  0.99739449  1
  O  O415  1  -0.47700973  1.36288854  0.00260551  1
  O  O416  1  0.49739449  0.97700973  1.36288854  1
  O  O417  1  -0.49739449  0.97700973  -0.36288854  1
  O  O418  1  0.49739449  0.02299027  -0.36288854  1
  O  O419  1  -0.49739449  0.02299027  1.36288854  1
  O  O420  1  0.49739449  1.36288854  0.97700973  1
  O  O421  1  -0.49739449  -0.36288854  0.97700973  1
  O  O422  1  0.49739449  -0.36288854  0.02299027  1
  O  O423  1  -0.49739449  1.36288854  0.02299027  1
  O  O424  1  0.86288854  0.97700973  0.99739449  1
  O  O425  1  -0.86288854  0.97700973  0.00260551  1
  O  O426  1  -0.86288854  0.02299027  0.99739449  1
  O  O427  1  0.86288854  0.02299027  0.00260551  1
  O  O428  1  0.47700973  0.99739449  1.36288854  1
  O  O429  1  0.47700973  0.00260551  -0.36288854  1
  O  O430  1  -0.47700973  0.99739449  -0.36288854  1
  O  O431  1  -0.47700973  0.00260551  1.36288854  1
  O  O432  1  1.36288854  0.49739449  0.97700973  1
  O  O433  1  -0.36288854  -0.49739449  0.97700973  1
  O  O434  1  -0.36288854  0.49739449  0.02299027  1
  O  O435  1  1.36288854  -0.49739449  0.02299027  1
  O  O436  1  0.97700973  0.86288854  0.99739449  1
  O  O437  1  0.97700973  -0.86288854  0.00260551  1
  O  O438  1  0.02299027  -0.86288854  0.99739449  1
  O  O439  1  0.02299027  0.86288854  0.00260551  1
  O  O440  1  0.99739449  0.47700973  1.36288854  1
  O  O441  1  0.00260551  0.47700973  -0.36288854  1
  O  O442  1  0.99739449  -0.47700973  -0.36288854  1
  O  O443  1  0.00260551  -0.47700973  1.36288854  1
  O  O444  1  0.99739449  0.86288854  0.97700973  1
  O  O445  1  0.00260551  -0.86288854  0.97700973  1
  O  O446  1  0.99739449  -0.86288854  0.02299027  1
  O  O447  1  0.00260551  0.86288854  0.02299027  1
  O  O448  1  1.36288854  0.47700973  0.99739449  1
  O  O449  1  -0.36288854  0.47700973  0.00260551  1
  O  O450  1  -0.36288854  -0.47700973  0.99739449  1
  O  O451  1  1.36288854  -0.47700973  0.00260551  1
  O  O452  1  0.97700973  0.49739449  1.36288854  1
  O  O453  1  0.97700973  -0.49739449  -0.36288854  1
  O  O454  1  0.02299027  0.49739449  -0.36288854  1
  O  O455  1  0.02299027  -0.49739449  1.36288854  1
  O  O456  1  1.36288854  0.99739449  0.47700973  1
  O  O457  1  -0.36288854  0.00260551  0.47700973  1
  O  O458  1  -0.36288854  0.99739449  -0.47700973  1
  O  O459  1  1.36288854  0.00260551  -0.47700973  1
  O  O460  1  0.97700973  1.36288854  0.49739449  1
  O  O461  1  0.97700973  -0.36288854  -0.49739449  1
  O  O462  1  0.02299027  -0.36288854  0.49739449  1
  O  O463  1  0.02299027  1.36288854  -0.49739449  1
  O  O464  1  0.99739449  0.97700973  0.86288854  1
  O  O465  1  0.00260551  0.97700973  -0.86288854  1
  O  O466  1  0.99739449  0.02299027  -0.86288854  1
  O  O467  1  0.00260551  0.02299027  0.86288854  1
  O  O468  1  0.99739449  1.36288854  0.47700973  1
  O  O469  1  0.00260551  -0.36288854  0.47700973  1
  O  O470  1  0.99739449  -0.36288854  -0.47700973  1
  O  O471  1  0.00260551  1.36288854  -0.47700973  1
  O  O472  1  1.36288854  0.97700973  0.49739449  1
  O  O473  1  -0.36288854  0.97700973  -0.49739449  1
  O  O474  1  -0.36288854  0.02299027  0.49739449  1
  O  O475  1  1.36288854  0.02299027  -0.49739449  1
  O  O476  1  0.97700973  0.99739449  0.86288854  1
  O  O477  1  0.97700973  0.00260551  -0.86288854  1
  O  O478  1  0.02299027  0.99739449  -0.86288854  1
  O  O479  1  0.02299027  0.00260551  0.86288854  1
  O  O480  1  0.41321928  0.41321928  0.25927662  1
  O  O481  1  0.58678072  0.58678072  0.25927662  1
  O  O482  1  0.58678072  0.41321928  0.74072338  1
  O  O483  1  0.41321928  0.58678072  0.74072338  1
  O  O484  1  0.25927662  0.41321928  0.41321928  1
  O  O485  1  0.25927662  0.58678072  0.58678072  1
  O  O486  1  0.74072338  0.58678072  0.41321928  1
  O  O487  1  0.74072338  0.41321928  0.58678072  1
  O  O488  1  0.41321928  0.25927662  0.41321928  1
  O  O489  1  0.58678072  0.25927662  0.58678072  1
  O  O490  1  0.41321928  0.74072338  0.58678072  1
  O  O491  1  0.58678072  0.74072338  0.41321928  1
  O  O492  1  0.41321928  0.91321928  0.75927662  1
  O  O493  1  0.58678072  0.08678072  0.75927662  1
  O  O494  1  0.58678072  0.91321928  0.24072338  1
  O  O495  1  0.41321928  0.08678072  0.24072338  1
  O  O496  1  0.25927662  0.91321928  0.91321928  1
  O  O497  1  0.25927662  0.08678072  0.08678072  1
  O  O498  1  0.74072338  0.08678072  0.91321928  1
  O  O499  1  0.74072338  0.91321928  0.08678072  1
  O  O500  1  0.41321928  0.75927662  0.91321928  1
  O  O501  1  0.58678072  0.75927662  0.08678072  1
  O  O502  1  0.41321928  0.24072338  0.08678072  1
  O  O503  1  0.58678072  0.24072338  0.91321928  1
  O  O504  1  0.91321928  0.41321928  0.75927662  1
  O  O505  1  0.08678072  0.58678072  0.75927662  1
  O  O506  1  0.08678072  0.41321928  0.24072338  1
  O  O507  1  0.91321928  0.58678072  0.24072338  1
  O  O508  1  0.75927662  0.41321928  0.91321928  1
  O  O509  1  0.75927662  0.58678072  0.08678072  1
  O  O510  1  0.24072338  0.58678072  0.91321928  1
  O  O511  1  0.24072338  0.41321928  0.08678072  1
  O  O512  1  0.91321928  0.25927662  0.91321928  1
  O  O513  1  0.08678072  0.25927662  0.08678072  1
  O  O514  1  0.91321928  0.74072338  0.08678072  1
  O  O515  1  0.08678072  0.74072338  0.91321928  1
  O  O516  1  0.91321928  0.91321928  0.25927662  1
  O  O517  1  0.08678072  0.08678072  0.25927662  1
  O  O518  1  0.08678072  0.91321928  0.74072338  1
  O  O519  1  0.91321928  0.08678072  0.74072338  1
  O  O520  1  0.75927662  0.91321928  0.41321928  1
  O  O521  1  0.75927662  0.08678072  0.58678072  1
  O  O522  1  0.24072338  0.08678072  0.41321928  1
  O  O523  1  0.24072338  0.91321928  0.58678072  1
  O  O524  1  0.91321928  0.75927662  0.41321928  1
  O  O525  1  0.08678072  0.75927662  0.58678072  1
  O  O526  1  0.91321928  0.24072338  0.58678072  1
  O  O527  1  0.08678072  0.24072338  0.41321928  1
  O  O528  1  0.97849663  0.82275345  0.45763239  1
  O  O529  1  0.02150337  0.17724655  0.45763239  1
  O  O530  1  0.02150337  0.82275345  0.54236761  1
  O  O531  1  0.97849663  0.17724655  0.54236761  1
  O  O532  1  0.45763239  0.97849663  0.82275345  1
  O  O533  1  0.45763239  0.02150337  0.17724655  1
  O  O534  1  0.54236761  0.02150337  0.82275345  1
  O  O535  1  0.54236761  0.97849663  0.17724655  1
  O  O536  1  0.82275345  0.45763239  0.97849663  1
  O  O537  1  0.17724655  0.45763239  0.02150337  1
  O  O538  1  0.82275345  0.54236761  0.02150337  1
  O  O539  1  0.17724655  0.54236761  0.97849663  1
  O  O540  1  0.82275345  0.97849663  0.45763239  1
  O  O541  1  0.17724655  0.02150337  0.45763239  1
  O  O542  1  0.82275345  0.02150337  0.54236761  1
  O  O543  1  0.17724655  0.97849663  0.54236761  1
  O  O544  1  0.97849663  0.45763239  0.82275345  1
  O  O545  1  0.02150337  0.45763239  0.17724655  1
  O  O546  1  0.02150337  0.54236761  0.82275345  1
  O  O547  1  0.97849663  0.54236761  0.17724655  1
  O  O548  1  0.45763239  0.82275345  0.97849663  1
  O  O549  1  0.45763239  0.17724655  0.02150337  1
  O  O550  1  0.54236761  0.82275345  0.02150337  1
  O  O551  1  0.54236761  0.17724655  0.97849663  1
  O  O552  1  0.97849663  0.32275345  0.95763239  1
  O  O553  1  0.02150337  0.67724655  0.95763239  1
  O  O554  1  0.02150337  0.32275345  0.04236761  1
  O  O555  1  0.97849663  0.67724655  0.04236761  1
  O  O556  1  0.45763239  0.47849663  0.32275345  1
  O  O557  1  0.45763239  0.52150337  0.67724655  1
  O  O558  1  0.54236761  0.52150337  0.32275345  1
  O  O559  1  0.54236761  0.47849663  0.67724655  1
  O  O560  1  0.82275345  0.95763239  0.47849663  1
  O  O561  1  0.17724655  0.95763239  0.52150337  1
  O  O562  1  0.82275345  0.04236761  0.52150337  1
  O  O563  1  0.17724655  0.04236761  0.47849663  1
  O  O564  1  0.82275345  0.47849663  0.95763239  1
  O  O565  1  0.17724655  0.52150337  0.95763239  1
  O  O566  1  0.82275345  0.52150337  0.04236761  1
  O  O567  1  0.17724655  0.47849663  0.04236761  1
  O  O568  1  0.97849663  0.95763239  0.32275345  1
  O  O569  1  0.02150337  0.95763239  0.67724655  1
  O  O570  1  0.02150337  0.04236761  0.32275345  1
  O  O571  1  0.97849663  0.04236761  0.67724655  1
  O  O572  1  0.45763239  0.32275345  0.47849663  1
  O  O573  1  0.45763239  0.67724655  0.52150337  1
  O  O574  1  0.54236761  0.32275345  0.52150337  1
  O  O575  1  0.54236761  0.67724655  0.47849663  1
  O  O576  1  0.47849663  0.82275345  0.95763239  1
  O  O577  1  0.52150337  0.17724655  0.95763239  1
  O  O578  1  0.52150337  0.82275345  0.04236761  1
  O  O579  1  0.47849663  0.17724655  0.04236761  1
  O  O580  1  0.95763239  0.97849663  0.32275345  1
  O  O581  1  0.95763239  0.02150337  0.67724655  1
  O  O582  1  0.04236761  0.02150337  0.32275345  1
  O  O583  1  0.04236761  0.97849663  0.67724655  1
  O  O584  1  0.32275345  0.45763239  0.47849663  1
  O  O585  1  0.67724655  0.45763239  0.52150337  1
  O  O586  1  0.32275345  0.54236761  0.52150337  1
  O  O587  1  0.67724655  0.54236761  0.47849663  1
  O  O588  1  0.32275345  0.97849663  0.95763239  1
  O  O589  1  0.67724655  0.02150337  0.95763239  1
  O  O590  1  0.32275345  0.02150337  0.04236761  1
  O  O591  1  0.67724655  0.97849663  0.04236761  1
  O  O592  1  0.47849663  0.45763239  0.32275345  1
  O  O593  1  0.52150337  0.45763239  0.67724655  1
  O  O594  1  0.52150337  0.54236761  0.32275345  1
  O  O595  1  0.47849663  0.54236761  0.67724655  1
  O  O596  1  0.95763239  0.82275345  0.47849663  1
  O  O597  1  0.95763239  0.17724655  0.52150337  1
  O  O598  1  0.04236761  0.82275345  0.52150337  1
  O  O599  1  0.04236761  0.17724655  0.47849663  1
  O  O600  1  0.47849663  0.32275345  0.45763239  1
  O  O601  1  0.52150337  0.67724655  0.45763239  1
  O  O602  1  0.52150337  0.32275345  0.54236761  1
  O  O603  1  0.47849663  0.67724655  0.54236761  1
  O  O604  1  0.95763239  0.47849663  0.82275345  1
  O  O605  1  0.95763239  0.52150337  0.17724655  1
  O  O606  1  0.04236761  0.52150337  0.82275345  1
  O  O607  1  0.04236761  0.47849663  0.17724655  1
  O  O608  1  0.32275345  0.95763239  0.97849663  1
  O  O609  1  0.67724655  0.95763239  0.02150337  1
  O  O610  1  0.32275345  0.04236761  0.02150337  1
  O  O611  1  0.67724655  0.04236761  0.97849663  1
  O  O612  1  0.32275345  0.47849663  0.45763239  1
  O  O613  1  0.67724655  0.52150337  0.45763239  1
  O  O614  1  0.32275345  0.52150337  0.54236761  1
  O  O615  1  0.67724655  0.47849663  0.54236761  1
  O  O616  1  0.47849663  0.95763239  0.82275345  1
  O  O617  1  0.52150337  0.95763239  0.17724655  1
  O  O618  1  0.52150337  0.04236761  0.82275345  1
  O  O619  1  0.47849663  0.04236761  0.17724655  1
  O  O620  1  0.95763239  0.32275345  0.97849663  1
  O  O621  1  0.95763239  0.67724655  0.02150337  1
  O  O622  1  0.04236761  0.32275345  0.02150337  1
  O  O623  1  0.04236761  0.67724655  0.97849663  1
  O  O624  1  0.78403151  0.32011842  0.04691738  1
  O  O625  1  0.21596849  0.67988158  0.04691738  1
  O  O626  1  0.21596849  0.32011842  0.95308262  1
  O  O627  1  0.78403151  0.67988158  0.95308262  1
  O  O628  1  0.04691738  0.78403151  0.32011842  1
  O  O629  1  0.04691738  0.21596849  0.67988158  1
  O  O630  1  0.95308262  0.21596849  0.32011842  1
  O  O631  1  0.95308262  0.78403151  0.67988158  1
  O  O632  1  0.32011842  0.04691738  0.78403151  1
  O  O633  1  0.67988158  0.04691738  0.21596849  1
  O  O634  1  0.32011842  0.95308262  0.21596849  1
  O  O635  1  0.67988158  0.95308262  0.78403151  1
  O  O636  1  0.32011842  0.78403151  0.04691738  1
  O  O637  1  0.67988158  0.21596849  0.04691738  1
  O  O638  1  0.32011842  0.21596849  0.95308262  1
  O  O639  1  0.67988158  0.78403151  0.95308262  1
  O  O640  1  0.78403151  0.04691738  0.32011842  1
  O  O641  1  0.21596849  0.04691738  0.67988158  1
  O  O642  1  0.21596849  0.95308262  0.32011842  1
  O  O643  1  0.78403151  0.95308262  0.67988158  1
  O  O644  1  0.04691738  0.32011842  0.78403151  1
  O  O645  1  0.04691738  0.67988158  0.21596849  1
  O  O646  1  0.95308262  0.32011842  0.21596849  1
  O  O647  1  0.95308262  0.67988158  0.78403151  1
  O  O648  1  0.78403151  0.82011842  0.54691738  1
  O  O649  1  0.21596849  0.17988158  0.54691738  1
  O  O650  1  0.21596849  0.82011842  0.45308262  1
  O  O651  1  0.78403151  0.17988158  0.45308262  1
  O  O652  1  0.04691738  0.28403151  0.82011842  1
  O  O653  1  0.04691738  0.71596849  0.17988158  1
  O  O654  1  0.95308262  0.71596849  0.82011842  1
  O  O655  1  0.95308262  0.28403151  0.17988158  1
  O  O656  1  0.32011842  0.54691738  0.28403151  1
  O  O657  1  0.67988158  0.54691738  0.71596849  1
  O  O658  1  0.32011842  0.45308262  0.71596849  1
  O  O659  1  0.67988158  0.45308262  0.28403151  1
  O  O660  1  0.32011842  0.28403151  0.54691738  1
  O  O661  1  0.67988158  0.71596849  0.54691738  1
  O  O662  1  0.32011842  0.71596849  0.45308262  1
  O  O663  1  0.67988158  0.28403151  0.45308262  1
  O  O664  1  0.78403151  0.54691738  0.82011842  1
  O  O665  1  0.21596849  0.54691738  0.17988158  1
  O  O666  1  0.21596849  0.45308262  0.82011842  1
  O  O667  1  0.78403151  0.45308262  0.17988158  1
  O  O668  1  0.04691738  0.82011842  0.28403151  1
  O  O669  1  0.04691738  0.17988158  0.71596849  1
  O  O670  1  0.95308262  0.82011842  0.71596849  1
  O  O671  1  0.95308262  0.17988158  0.28403151  1
  O  O672  1  0.28403151  0.32011842  0.54691738  1
  O  O673  1  0.71596849  0.67988158  0.54691738  1
  O  O674  1  0.71596849  0.32011842  0.45308262  1
  O  O675  1  0.28403151  0.67988158  0.45308262  1
  O  O676  1  0.54691738  0.78403151  0.82011842  1
  O  O677  1  0.54691738  0.21596849  0.17988158  1
  O  O678  1  0.45308262  0.21596849  0.82011842  1
  O  O679  1  0.45308262  0.78403151  0.17988158  1
  O  O680  1  0.82011842  0.04691738  0.28403151  1
  O  O681  1  0.17988158  0.04691738  0.71596849  1
  O  O682  1  0.82011842  0.95308262  0.71596849  1
  O  O683  1  0.17988158  0.95308262  0.28403151  1
  O  O684  1  0.82011842  0.78403151  0.54691738  1
  O  O685  1  0.17988158  0.21596849  0.54691738  1
  O  O686  1  0.82011842  0.21596849  0.45308262  1
  O  O687  1  0.17988158  0.78403151  0.45308262  1
  O  O688  1  0.28403151  0.04691738  0.82011842  1
  O  O689  1  0.71596849  0.04691738  0.17988158  1
  O  O690  1  0.71596849  0.95308262  0.82011842  1
  O  O691  1  0.28403151  0.95308262  0.17988158  1
  O  O692  1  0.54691738  0.32011842  0.28403151  1
  O  O693  1  0.54691738  0.67988158  0.71596849  1
  O  O694  1  0.45308262  0.32011842  0.71596849  1
  O  O695  1  0.45308262  0.67988158  0.28403151  1
  O  O696  1  0.28403151  0.82011842  0.04691738  1
  O  O697  1  0.71596849  0.17988158  0.04691738  1
  O  O698  1  0.71596849  0.82011842  0.95308262  1
  O  O699  1  0.28403151  0.17988158  0.95308262  1
  O  O700  1  0.54691738  0.28403151  0.32011842  1
  O  O701  1  0.54691738  0.71596849  0.67988158  1
  O  O702  1  0.45308262  0.71596849  0.32011842  1
  O  O703  1  0.45308262  0.28403151  0.67988158  1
  O  O704  1  0.82011842  0.54691738  0.78403151  1
  O  O705  1  0.17988158  0.54691738  0.21596849  1
  O  O706  1  0.82011842  0.45308262  0.21596849  1
  O  O707  1  0.17988158  0.45308262  0.78403151  1
  O  O708  1  0.82011842  0.28403151  0.04691738  1
  O  O709  1  0.17988158  0.71596849  0.04691738  1
  O  O710  1  0.82011842  0.71596849  0.95308262  1
  O  O711  1  0.17988158  0.28403151  0.95308262  1
  O  O712  1  0.28403151  0.54691738  0.32011842  1
  O  O713  1  0.71596849  0.54691738  0.67988158  1
  O  O714  1  0.71596849  0.45308262  0.32011842  1
  O  O715  1  0.28403151  0.45308262  0.67988158  1
  O  O716  1  0.54691738  0.82011842  0.78403151  1
  O  O717  1  0.54691738  0.17988158  0.21596849  1
  O  O718  1  0.45308262  0.82011842  0.21596849  1
  O  O719  1  0.45308262  0.17988158  0.78403151  1
  O  O720  1  0.98643265  0.98643265  0.66676832  1
  O  O721  1  0.01356735  0.01356735  0.66676832  1
  O  O722  1  0.01356735  0.98643265  0.33323168  1
  O  O723  1  0.98643265  0.01356735  0.33323168  1
  O  O724  1  0.66676832  0.98643265  0.98643265  1
  O  O725  1  0.66676832  0.01356735  0.01356735  1
  O  O726  1  0.33323168  0.01356735  0.98643265  1
  O  O727  1  0.33323168  0.98643265  0.01356735  1
  O  O728  1  0.98643265  0.66676832  0.98643265  1
  O  O729  1  0.01356735  0.66676832  0.01356735  1
  O  O730  1  0.98643265  0.33323168  0.01356735  1
  O  O731  1  0.01356735  0.33323168  0.98643265  1
  O  O732  1  0.98643265  0.48643265  0.16676832  1
  O  O733  1  0.01356735  0.51356735  0.16676832  1
  O  O734  1  0.01356735  0.48643265  0.83323168  1
  O  O735  1  0.98643265  0.51356735  0.83323168  1
  O  O736  1  0.66676832  0.48643265  0.48643265  1
  O  O737  1  0.66676832  0.51356735  0.51356735  1
  O  O738  1  0.33323168  0.51356735  0.48643265  1
  O  O739  1  0.33323168  0.48643265  0.51356735  1
  O  O740  1  0.98643265  0.16676832  0.48643265  1
  O  O741  1  0.01356735  0.16676832  0.51356735  1
  O  O742  1  0.98643265  0.83323168  0.51356735  1
  O  O743  1  0.01356735  0.83323168  0.48643265  1
  O  O744  1  0.48643265  0.98643265  0.16676832  1
  O  O745  1  0.51356735  0.01356735  0.16676832  1
  O  O746  1  0.51356735  0.98643265  0.83323168  1
  O  O747  1  0.48643265  0.01356735  0.83323168  1
  O  O748  1  0.16676832  0.98643265  0.48643265  1
  O  O749  1  0.16676832  0.01356735  0.51356735  1
  O  O750  1  0.83323168  0.01356735  0.48643265  1
  O  O751  1  0.83323168  0.98643265  0.51356735  1
  O  O752  1  0.48643265  0.66676832  0.48643265  1
  O  O753  1  0.51356735  0.66676832  0.51356735  1
  O  O754  1  0.48643265  0.33323168  0.51356735  1
  O  O755  1  0.51356735  0.33323168  0.48643265  1
  O  O756  1  0.48643265  0.48643265  0.66676832  1
  O  O757  1  0.51356735  0.51356735  0.66676832  1
  O  O758  1  0.51356735  0.48643265  0.33323168  1
  O  O759  1  0.48643265  0.51356735  0.33323168  1
  O  O760  1  0.16676832  0.48643265  0.98643265  1
  O  O761  1  0.16676832  0.51356735  0.01356735  1
  O  O762  1  0.83323168  0.51356735  0.98643265  1
  O  O763  1  0.83323168  0.48643265  0.01356735  1
  O  O764  1  0.48643265  0.16676832  0.98643265  1
  O  O765  1  0.51356735  0.16676832  0.01356735  1
  O  O766  1  0.48643265  0.83323168  0.01356735  1
  O  O767  1  0.51356735  0.83323168  0.98643265  1
  P  P768  1  0.84260340  0.84260340  0.55054335  1
  P  P769  1  0.15739660  0.15739660  0.55054335  1
  P  P770  1  0.15739660  0.84260340  0.44945665  1
  P  P771  1  0.84260340  0.15739660  0.44945665  1
  P  P772  1  0.55054335  0.84260340  0.84260340  1
  P  P773  1  0.55054335  0.15739660  0.15739660  1
  P  P774  1  0.44945665  0.15739660  0.84260340  1
  P  P775  1  0.44945665  0.84260340  0.15739660  1
  P  P776  1  0.84260340  0.55054335  0.84260340  1
  P  P777  1  0.15739660  0.55054335  0.15739660  1
  P  P778  1  0.84260340  0.44945665  0.15739660  1
  P  P779  1  0.15739660  0.44945665  0.84260340  1
  P  P780  1  0.84260340  0.34260340  0.05054335  1
  P  P781  1  0.15739660  0.65739660  0.05054335  1
  P  P782  1  0.15739660  0.34260340  0.94945665  1
  P  P783  1  0.84260340  0.65739660  0.94945665  1
  P  P784  1  0.55054335  0.34260340  0.34260340  1
  P  P785  1  0.55054335  0.65739660  0.65739660  1
  P  P786  1  0.44945665  0.65739660  0.34260340  1
  P  P787  1  0.44945665  0.34260340  0.65739660  1
  P  P788  1  0.84260340  0.05054335  0.34260340  1
  P  P789  1  0.15739660  0.05054335  0.65739660  1
  P  P790  1  0.84260340  0.94945665  0.65739660  1
  P  P791  1  0.15739660  0.94945665  0.34260340  1
  P  P792  1  0.34260340  0.84260340  0.05054335  1
  P  P793  1  0.65739660  0.15739660  0.05054335  1
  P  P794  1  0.65739660  0.84260340  0.94945665  1
  P  P795  1  0.34260340  0.15739660  0.94945665  1
  P  P796  1  0.05054335  0.84260340  0.34260340  1
  P  P797  1  0.05054335  0.15739660  0.65739660  1
  P  P798  1  0.94945665  0.15739660  0.34260340  1
  P  P799  1  0.94945665  0.84260340  0.65739660  1
  P  P800  1  0.34260340  0.55054335  0.34260340  1
  P  P801  1  0.65739660  0.55054335  0.65739660  1
  P  P802  1  0.34260340  0.44945665  0.65739660  1
  P  P803  1  0.65739660  0.44945665  0.34260340  1
  P  P804  1  0.34260340  0.34260340  0.55054335  1
  P  P805  1  0.65739660  0.65739660  0.55054335  1
  P  P806  1  0.65739660  0.34260340  0.44945665  1
  P  P807  1  0.34260340  0.65739660  0.44945665  1
  P  P808  1  0.05054335  0.34260340  0.84260340  1
  P  P809  1  0.05054335  0.65739660  0.15739660  1
  P  P810  1  0.94945665  0.65739660  0.84260340  1
  P  P811  1  0.94945665  0.34260340  0.15739660  1
  P  P812  1  0.34260340  0.05054335  0.84260340  1
  P  P813  1  0.65739660  0.05054335  0.15739660  1
  P  P814  1  0.34260340  0.94945665  0.15739660  1
  P  P815  1  0.65739660  0.94945665  0.84260340  1
  P  P816  1  0.34968094  0.34968094  0.34968094  1
  P  P817  1  0.65031906  0.65031906  0.34968094  1
  P  P818  1  0.65031906  0.34968094  0.65031906  1
  P  P819  1  0.34968094  0.65031906  0.65031906  1
  P  P820  1  0.34968094  0.84968094  0.84968094  1
  P  P821  1  0.65031906  0.15031906  0.84968094  1
  P  P822  1  0.65031906  0.84968094  0.15031906  1
  P  P823  1  0.34968094  0.15031906  0.15031906  1
  P  P824  1  0.84968094  0.34968094  0.84968094  1
  P  P825  1  0.15031906  0.65031906  0.84968094  1
  P  P826  1  0.15031906  0.34968094  0.15031906  1
  P  P827  1  0.84968094  0.65031906  0.15031906  1
  P  P828  1  0.84968094  0.84968094  0.34968094  1
  P  P829  1  0.15031906  0.15031906  0.34968094  1
  P  P830  1  0.15031906  0.84968094  0.65031906  1
  P  P831  1  0.84968094  0.15031906  0.65031906  1
  Sn  Sn832  1  0.17192762  0.17192762  0.17192762  1
  Sn  Sn833  1  0.82807238  0.82807238  0.17192762  1
  Sn  Sn834  1  0.82807238  0.17192762  0.82807238  1
  Sn  Sn835  1  0.17192762  0.82807238  0.82807238  1
  Sn  Sn836  1  0.17192762  0.67192762  0.67192762  1
  Sn  Sn837  1  0.82807238  0.32807238  0.67192762  1
  Sn  Sn838  1  0.82807238  0.67192762  0.32807238  1
  Sn  Sn839  1  0.17192762  0.32807238  0.32807238  1
  Sn  Sn840  1  0.67192762  0.17192762  0.67192762  1
  Sn  Sn841  1  0.32807238  0.82807238  0.67192762  1
  Sn  Sn842  1  0.32807238  0.17192762  0.32807238  1
  Sn  Sn843  1  0.67192762  0.82807238  0.32807238  1
  Sn  Sn844  1  0.67192762  0.67192762  0.17192762  1
  Sn  Sn845  1  0.32807238  0.32807238  0.17192762  1
  Sn  Sn846  1  0.32807238  0.67192762  0.82807238  1
  Sn  Sn847  1  0.67192762  0.32807238  0.82807238  1
  Zr  Zr848  1  0.83847848  0.73647081  0.51898450  1
  Zr  Zr849  1  0.16152152  0.26352919  0.51898450  1
  Zr  Zr850  1  0.16152152  0.73647081  0.48101550  1
  Zr  Zr851  1  0.83847848  0.26352919  0.48101550  1
  Zr  Zr852  1  0.51898450  0.83847848  0.73647081  1
  Zr  Zr853  1  0.51898450  0.16152152  0.26352919  1
  Zr  Zr854  1  0.48101550  0.16152152  0.73647081  1
  Zr  Zr855  1  0.48101550  0.83847848  0.26352919  1
  Zr  Zr856  1  0.73647081  0.51898450  0.83847848  1
  Zr  Zr857  1  0.26352919  0.51898450  0.16152152  1
  Zr  Zr858  1  0.73647081  0.48101550  0.16152152  1
  Zr  Zr859  1  0.26352919  0.48101550  0.83847848  1
  Zr  Zr860  1  0.73647081  0.83847848  0.51898450  1
  Zr  Zr861  1  0.26352919  0.16152152  0.51898450  1
  Zr  Zr862  1  0.73647081  0.16152152  0.48101550  1
  Zr  Zr863  1  0.26352919  0.83847848  0.48101550  1
  Zr  Zr864  1  0.83847848  0.51898450  0.73647081  1
  Zr  Zr865  1  0.16152152  0.51898450  0.26352919  1
  Zr  Zr866  1  0.16152152  0.48101550  0.73647081  1
  Zr  Zr867  1  0.83847848  0.48101550  0.26352919  1
  Zr  Zr868  1  0.51898450  0.73647081  0.83847848  1
  Zr  Zr869  1  0.51898450  0.26352919  0.16152152  1
  Zr  Zr870  1  0.48101550  0.73647081  0.16152152  1
  Zr  Zr871  1  0.48101550  0.26352919  0.83847848  1
  Zr  Zr872  1  0.83847848  0.23647081  0.01898450  1
  Zr  Zr873  1  0.16152152  0.76352919  0.01898450  1
  Zr  Zr874  1  0.16152152  0.23647081  0.98101550  1
  Zr  Zr875  1  0.83847848  0.76352919  0.98101550  1
  Zr  Zr876  1  0.51898450  0.33847848  0.23647081  1
  Zr  Zr877  1  0.51898450  0.66152152  0.76352919  1
  Zr  Zr878  1  0.48101550  0.66152152  0.23647081  1
  Zr  Zr879  1  0.48101550  0.33847848  0.76352919  1
  Zr  Zr880  1  0.73647081  0.01898450  0.33847848  1
  Zr  Zr881  1  0.26352919  0.01898450  0.66152152  1
  Zr  Zr882  1  0.73647081  0.98101550  0.66152152  1
  Zr  Zr883  1  0.26352919  0.98101550  0.33847848  1
  Zr  Zr884  1  0.73647081  0.33847848  0.01898450  1
  Zr  Zr885  1  0.26352919  0.66152152  0.01898450  1
  Zr  Zr886  1  0.73647081  0.66152152  0.98101550  1
  Zr  Zr887  1  0.26352919  0.33847848  0.98101550  1
  Zr  Zr888  1  0.83847848  0.01898450  0.23647081  1
  Zr  Zr889  1  0.16152152  0.01898450  0.76352919  1
  Zr  Zr890  1  0.16152152  0.98101550  0.23647081  1
  Zr  Zr891  1  0.83847848  0.98101550  0.76352919  1
  Zr  Zr892  1  0.51898450  0.23647081  0.33847848  1
  Zr  Zr893  1  0.51898450  0.76352919  0.66152152  1
  Zr  Zr894  1  0.48101550  0.23647081  0.66152152  1
  Zr  Zr895  1  0.48101550  0.76352919  0.33847848  1
  Zr  Zr896  1  0.33847848  0.73647081  0.01898450  1
  Zr  Zr897  1  0.66152152  0.26352919  0.01898450  1
  Zr  Zr898  1  0.66152152  0.73647081  0.98101550  1
  Zr  Zr899  1  0.33847848  0.26352919  0.98101550  1
  Zr  Zr900  1  0.01898450  0.83847848  0.23647081  1
  Zr  Zr901  1  0.01898450  0.16152152  0.76352919  1
  Zr  Zr902  1  0.98101550  0.16152152  0.23647081  1
  Zr  Zr903  1  0.98101550  0.83847848  0.76352919  1
  Zr  Zr904  1  0.23647081  0.51898450  0.33847848  1
  Zr  Zr905  1  0.76352919  0.51898450  0.66152152  1
  Zr  Zr906  1  0.23647081  0.48101550  0.66152152  1
  Zr  Zr907  1  0.76352919  0.48101550  0.33847848  1
  Zr  Zr908  1  0.23647081  0.83847848  0.01898450  1
  Zr  Zr909  1  0.76352919  0.16152152  0.01898450  1
  Zr  Zr910  1  0.23647081  0.16152152  0.98101550  1
  Zr  Zr911  1  0.76352919  0.83847848  0.98101550  1
  Zr  Zr912  1  0.33847848  0.51898450  0.23647081  1
  Zr  Zr913  1  0.66152152  0.51898450  0.76352919  1
  Zr  Zr914  1  0.66152152  0.48101550  0.23647081  1
  Zr  Zr915  1  0.33847848  0.48101550  0.76352919  1
  Zr  Zr916  1  0.01898450  0.73647081  0.33847848  1
  Zr  Zr917  1  0.01898450  0.26352919  0.66152152  1
  Zr  Zr918  1  0.98101550  0.73647081  0.66152152  1
  Zr  Zr919  1  0.98101550  0.26352919  0.33847848  1
  Zr  Zr920  1  0.33847848  0.23647081  0.51898450  1
  Zr  Zr921  1  0.66152152  0.76352919  0.51898450  1
  Zr  Zr922  1  0.66152152  0.23647081  0.48101550  1
  Zr  Zr923  1  0.33847848  0.76352919  0.48101550  1
  Zr  Zr924  1  0.01898450  0.33847848  0.73647081  1
  Zr  Zr925  1  0.01898450  0.66152152  0.26352919  1
  Zr  Zr926  1  0.98101550  0.66152152  0.73647081  1
  Zr  Zr927  1  0.98101550  0.33847848  0.26352919  1
  Zr  Zr928  1  0.23647081  0.01898450  0.83847848  1
  Zr  Zr929  1  0.76352919  0.01898450  0.16152152  1
  Zr  Zr930  1  0.23647081  0.98101550  0.16152152  1
  Zr  Zr931  1  0.76352919  0.98101550  0.83847848  1
  Zr  Zr932  1  0.23647081  0.33847848  0.51898450  1
  Zr  Zr933  1  0.76352919  0.66152152  0.51898450  1
  Zr  Zr934  1  0.23647081  0.66152152  0.48101550  1
  Zr  Zr935  1  0.76352919  0.33847848  0.48101550  1
  Zr  Zr936  1  0.33847848  0.01898450  0.73647081  1
  Zr  Zr937  1  0.66152152  0.01898450  0.26352919  1
  Zr  Zr938  1  0.66152152  0.98101550  0.73647081  1
  Zr  Zr939  1  0.33847848  0.98101550  0.26352919  1
  Zr  Zr940  1  0.01898450  0.23647081  0.83847848  1
  Zr  Zr941  1  0.01898450  0.76352919  0.16152152  1
  Zr  Zr942  1  0.98101550  0.23647081  0.16152152  1
  Zr  Zr943  1  0.98101550  0.76352919  0.83847848  1
