# generated using pymatgen
data_Li4I3F
_symmetry_space_group_name_H-M   'P 1'
_cell_length_a   27.02488539
_cell_length_b   27.02488539
_cell_length_c   27.02488539
_cell_angle_alpha   90.00000000
_cell_angle_beta   90.00000000
_cell_angle_gamma   90.00000000
_symmetry_Int_Tables_number   1
_chemical_formula_structural   Li4I3F
_chemical_formula_sum   'Li384 I288 F96'
_cell_volume   19737.47453062
_cell_formula_units_Z   96
loop_
 _symmetry_equiv_pos_site_id
 _symmetry_equiv_pos_as_xyz
  1  'x, y, z'
loop_
 _atom_site_type_symbol
 _atom_site_label
 _atom_site_symmetry_multiplicity
 _atom_site_fract_x
 _atom_site_fract_y
 _atom_site_fract_z
 _atom_site_occupancy
  F  F0  1  0.00000000  0.06165601  0.45916866  1
  F  F1  1  0.00000000  0.93834399  0.45916866  1
  F  F2  1  0.00000000  0.06165601  0.54083134  1
  F  F3  1  0.00000000  0.93834399  0.54083134  1
  F  F4  1  0.45916866  0.00000000  0.06165601  1
  F  F5  1  0.45916866  0.00000000  0.93834399  1
  F  F6  1  0.54083134  0.00000000  0.06165601  1
  F  F7  1  0.54083134  0.00000000  0.93834399  1
  F  F8  1  0.06165601  0.45916866  0.00000000  1
  F  F9  1  0.93834399  0.45916866  0.00000000  1
  F  F10  1  0.06165601  0.54083134  0.00000000  1
  F  F11  1  0.93834399  0.54083134  -0.00000000  1
  F  F12  1  0.06165601  -0.00000000  0.54083134  1
  F  F13  1  0.93834399  0.00000000  0.54083134  1
  F  F14  1  0.06165601  -0.00000000  0.45916866  1
  F  F15  1  0.93834399  0.00000000  0.45916866  1
  F  F16  1  0.00000000  0.45916866  0.93834399  1
  F  F17  1  0.00000000  0.45916866  0.06165601  1
  F  F18  1  0.00000000  0.54083134  0.93834399  1
  F  F19  1  0.00000000  0.54083134  0.06165601  1
  F  F20  1  0.45916866  0.06165601  0.00000000  1
  F  F21  1  0.45916866  0.93834399  0.00000000  1
  F  F22  1  0.54083134  0.06165601  -0.00000000  1
  F  F23  1  0.54083134  0.93834399  -0.00000000  1
  F  F24  1  0.00000000  0.56165601  0.95916866  1
  F  F25  1  0.00000000  0.43834399  0.95916866  1
  F  F26  1  0.00000000  0.56165601  0.04083134  1
  F  F27  1  0.00000000  0.43834399  0.04083134  1
  F  F28  1  0.45916866  0.50000000  0.56165601  1
  F  F29  1  0.45916866  0.50000000  0.43834399  1
  F  F30  1  0.54083134  0.50000000  0.56165601  1
  F  F31  1  0.54083134  0.50000000  0.43834399  1
  F  F32  1  0.06165601  0.95916866  0.50000000  1
  F  F33  1  0.93834399  0.95916866  0.50000000  1
  F  F34  1  0.06165601  0.04083134  0.50000000  1
  F  F35  1  0.93834399  0.04083134  0.50000000  1
  F  F36  1  0.06165601  0.50000000  0.04083134  1
  F  F37  1  0.93834399  0.50000000  0.04083134  1
  F  F38  1  0.06165601  0.50000000  0.95916866  1
  F  F39  1  0.93834399  0.50000000  0.95916866  1
  F  F40  1  0.00000000  0.95916866  0.43834399  1
  F  F41  1  0.00000000  0.95916866  0.56165601  1
  F  F42  1  0.00000000  0.04083134  0.43834399  1
  F  F43  1  0.00000000  0.04083134  0.56165601  1
  F  F44  1  0.45916866  0.56165601  0.50000000  1
  F  F45  1  0.45916866  0.43834399  0.50000000  1
  F  F46  1  0.54083134  0.56165601  0.50000000  1
  F  F47  1  0.54083134  0.43834399  0.50000000  1
  F  F48  1  0.50000000  0.06165601  0.95916866  1
  F  F49  1  0.50000000  0.93834399  0.95916866  1
  F  F50  1  0.50000000  0.06165601  0.04083134  1
  F  F51  1  0.50000000  0.93834399  0.04083134  1
  F  F52  1  0.95916866  -0.00000000  0.56165601  1
  F  F53  1  0.95916866  -0.00000000  0.43834399  1
  F  F54  1  0.04083134  0.00000000  0.56165601  1
  F  F55  1  0.04083134  0.00000000  0.43834399  1
  F  F56  1  0.56165601  0.45916866  0.50000000  1
  F  F57  1  0.43834399  0.45916866  0.50000000  1
  F  F58  1  0.56165601  0.54083134  0.50000000  1
  F  F59  1  0.43834399  0.54083134  0.50000000  1
  F  F60  1  0.56165601  -0.00000000  0.04083134  1
  F  F61  1  0.43834399  0.00000000  0.04083134  1
  F  F62  1  0.56165601  -0.00000000  0.95916866  1
  F  F63  1  0.43834399  0.00000000  0.95916866  1
  F  F64  1  0.50000000  0.45916866  0.43834399  1
  F  F65  1  0.50000000  0.45916866  0.56165601  1
  F  F66  1  0.50000000  0.54083134  0.43834399  1
  F  F67  1  0.50000000  0.54083134  0.56165601  1
  F  F68  1  0.95916866  0.06165601  0.50000000  1
  F  F69  1  0.95916866  0.93834399  0.50000000  1
  F  F70  1  0.04083134  0.06165601  0.50000000  1
  F  F71  1  0.04083134  0.93834399  0.50000000  1
  F  F72  1  0.50000000  0.56165601  0.45916866  1
  F  F73  1  0.50000000  0.43834399  0.45916866  1
  F  F74  1  0.50000000  0.56165601  0.54083134  1
  F  F75  1  0.50000000  0.43834399  0.54083134  1
  F  F76  1  0.95916866  0.50000000  0.06165601  1
  F  F77  1  0.95916866  0.50000000  0.93834399  1
  F  F78  1  0.04083134  0.50000000  0.06165601  1
  F  F79  1  0.04083134  0.50000000  0.93834399  1
  F  F80  1  0.56165601  0.95916866  -0.00000000  1
  F  F81  1  0.43834399  0.95916866  0.00000000  1
  F  F82  1  0.56165601  0.04083134  -0.00000000  1
  F  F83  1  0.43834399  0.04083134  -0.00000000  1
  F  F84  1  0.56165601  0.50000000  0.54083134  1
  F  F85  1  0.43834399  0.50000000  0.54083134  1
  F  F86  1  0.56165601  0.50000000  0.45916866  1
  F  F87  1  0.43834399  0.50000000  0.45916866  1
  F  F88  1  0.50000000  0.95916866  0.93834399  1
  F  F89  1  0.50000000  0.95916866  0.06165601  1
  F  F90  1  0.50000000  0.04083134  0.93834399  1
  F  F91  1  0.50000000  0.04083134  0.06165601  1
  F  F92  1  0.95916866  0.56165601  -0.00000000  1
  F  F93  1  0.95916866  0.43834399  0.00000000  1
  F  F94  1  0.04083134  0.56165601  -0.00000000  1
  F  F95  1  0.04083134  0.43834399  0.00000000  1
  I  I96  1  0.66327472  0.66327472  0.66327472  1
  I  I97  1  0.33672528  0.33672528  0.66327472  1
  I  I98  1  0.33672528  0.66327472  0.33672528  1
  I  I99  1  0.66327472  0.33672528  0.33672528  1
  I  I100  1  0.66327472  0.66327472  0.33672528  1
  I  I101  1  0.33672528  0.33672528  0.33672528  1
  I  I102  1  0.66327472  0.33672528  0.66327472  1
  I  I103  1  0.33672528  0.66327472  0.66327472  1
  I  I104  1  0.66327472  0.16327472  0.16327472  1
  I  I105  1  0.33672528  0.83672528  0.16327472  1
  I  I106  1  0.33672528  0.16327472  0.83672528  1
  I  I107  1  0.66327472  0.83672528  0.83672528  1
  I  I108  1  0.66327472  0.16327472  0.83672528  1
  I  I109  1  0.33672528  0.83672528  0.83672528  1
  I  I110  1  0.66327472  0.83672528  0.16327472  1
  I  I111  1  0.33672528  0.16327472  0.16327472  1
  I  I112  1  0.16327472  0.66327472  0.16327472  1
  I  I113  1  0.83672528  0.33672528  0.16327472  1
  I  I114  1  0.83672528  0.66327472  0.83672528  1
  I  I115  1  0.16327472  0.33672528  0.83672528  1
  I  I116  1  0.16327472  0.66327472  0.83672528  1
  I  I117  1  0.83672528  0.33672528  0.83672528  1
  I  I118  1  0.16327472  0.33672528  0.16327472  1
  I  I119  1  0.83672528  0.66327472  0.16327472  1
  I  I120  1  0.16327472  0.16327472  0.66327472  1
  I  I121  1  0.83672528  0.83672528  0.66327472  1
  I  I122  1  0.83672528  0.16327472  0.33672528  1
  I  I123  1  0.16327472  0.83672528  0.33672528  1
  I  I124  1  0.16327472  0.16327472  0.33672528  1
  I  I125  1  0.83672528  0.83672528  0.33672528  1
  I  I126  1  0.16327472  0.83672528  0.66327472  1
  I  I127  1  0.83672528  0.16327472  0.66327472  1
  I  I128  1  0.90027218  0.90027218  0.65762633  1
  I  I129  1  0.09972782  0.09972782  0.65762633  1
  I  I130  1  0.09972782  0.90027218  0.34237367  1
  I  I131  1  0.90027218  0.09972782  0.34237367  1
  I  I132  1  0.65762633  0.90027218  0.90027218  1
  I  I133  1  0.65762633  0.09972782  0.09972782  1
  I  I134  1  0.34237367  0.09972782  0.90027218  1
  I  I135  1  0.34237367  0.90027218  0.09972782  1
  I  I136  1  0.90027218  0.65762633  0.90027218  1
  I  I137  1  0.09972782  0.65762633  0.09972782  1
  I  I138  1  0.90027218  0.34237367  0.09972782  1
  I  I139  1  0.09972782  0.34237367  0.90027218  1
  I  I140  1  0.90027218  0.90027218  0.34237367  1
  I  I141  1  0.09972782  0.09972782  0.34237367  1
  I  I142  1  0.90027218  0.09972782  0.65762633  1
  I  I143  1  0.09972782  0.90027218  0.65762633  1
  I  I144  1  0.90027218  0.65762633  0.09972782  1
  I  I145  1  0.09972782  0.65762633  0.90027218  1
  I  I146  1  0.09972782  0.34237367  0.09972782  1
  I  I147  1  0.90027218  0.34237367  0.90027218  1
  I  I148  1  0.65762633  0.90027218  0.09972782  1
  I  I149  1  0.65762633  0.09972782  0.90027218  1
  I  I150  1  0.34237367  0.90027218  0.90027218  1
  I  I151  1  0.34237367  0.09972782  0.09972782  1
  I  I152  1  0.90027218  0.40027218  0.15762633  1
  I  I153  1  0.09972782  0.59972782  0.15762633  1
  I  I154  1  0.09972782  0.40027218  0.84237367  1
  I  I155  1  0.90027218  0.59972782  0.84237367  1
  I  I156  1  0.65762633  0.40027218  0.40027218  1
  I  I157  1  0.65762633  0.59972782  0.59972782  1
  I  I158  1  0.34237367  0.59972782  0.40027218  1
  I  I159  1  0.34237367  0.40027218  0.59972782  1
  I  I160  1  0.90027218  0.15762633  0.40027218  1
  I  I161  1  0.09972782  0.15762633  0.59972782  1
  I  I162  1  0.90027218  0.84237367  0.59972782  1
  I  I163  1  0.09972782  0.84237367  0.40027218  1
  I  I164  1  0.90027218  0.40027218  0.84237367  1
  I  I165  1  0.09972782  0.59972782  0.84237367  1
  I  I166  1  0.90027218  0.59972782  0.15762633  1
  I  I167  1  0.09972782  0.40027218  0.15762633  1
  I  I168  1  0.90027218  0.15762633  0.59972782  1
  I  I169  1  0.09972782  0.15762633  0.40027218  1
  I  I170  1  0.09972782  0.84237367  0.59972782  1
  I  I171  1  0.90027218  0.84237367  0.40027218  1
  I  I172  1  0.65762633  0.40027218  0.59972782  1
  I  I173  1  0.65762633  0.59972782  0.40027218  1
  I  I174  1  0.34237367  0.40027218  0.40027218  1
  I  I175  1  0.34237367  0.59972782  0.59972782  1
  I  I176  1  0.40027218  0.90027218  0.15762633  1
  I  I177  1  0.59972782  0.09972782  0.15762633  1
  I  I178  1  0.59972782  0.90027218  0.84237367  1
  I  I179  1  0.40027218  0.09972782  0.84237367  1
  I  I180  1  0.15762633  0.90027218  0.40027218  1
  I  I181  1  0.15762633  0.09972782  0.59972782  1
  I  I182  1  0.84237367  0.09972782  0.40027218  1
  I  I183  1  0.84237367  0.90027218  0.59972782  1
  I  I184  1  0.40027218  0.65762633  0.40027218  1
  I  I185  1  0.59972782  0.65762633  0.59972782  1
  I  I186  1  0.40027218  0.34237367  0.59972782  1
  I  I187  1  0.59972782  0.34237367  0.40027218  1
  I  I188  1  0.40027218  0.90027218  0.84237367  1
  I  I189  1  0.59972782  0.09972782  0.84237367  1
  I  I190  1  0.40027218  0.09972782  0.15762633  1
  I  I191  1  0.59972782  0.90027218  0.15762633  1
  I  I192  1  0.40027218  0.65762633  0.59972782  1
  I  I193  1  0.59972782  0.65762633  0.40027218  1
  I  I194  1  0.59972782  0.34237367  0.59972782  1
  I  I195  1  0.40027218  0.34237367  0.40027218  1
  I  I196  1  0.15762633  0.90027218  0.59972782  1
  I  I197  1  0.15762633  0.09972782  0.40027218  1
  I  I198  1  0.84237367  0.90027218  0.40027218  1
  I  I199  1  0.84237367  0.09972782  0.59972782  1
  I  I200  1  0.40027218  0.40027218  0.65762633  1
  I  I201  1  0.59972782  0.59972782  0.65762633  1
  I  I202  1  0.59972782  0.40027218  0.34237367  1
  I  I203  1  0.40027218  0.59972782  0.34237367  1
  I  I204  1  0.15762633  0.40027218  0.90027218  1
  I  I205  1  0.15762633  0.59972782  0.09972782  1
  I  I206  1  0.84237367  0.59972782  0.90027218  1
  I  I207  1  0.84237367  0.40027218  0.09972782  1
  I  I208  1  0.40027218  0.15762633  0.90027218  1
  I  I209  1  0.59972782  0.15762633  0.09972782  1
  I  I210  1  0.40027218  0.84237367  0.09972782  1
  I  I211  1  0.59972782  0.84237367  0.90027218  1
  I  I212  1  0.40027218  0.40027218  0.34237367  1
  I  I213  1  0.59972782  0.59972782  0.34237367  1
  I  I214  1  0.40027218  0.59972782  0.65762633  1
  I  I215  1  0.59972782  0.40027218  0.65762633  1
  I  I216  1  0.40027218  0.15762633  0.09972782  1
  I  I217  1  0.59972782  0.15762633  0.90027218  1
  I  I218  1  0.59972782  0.84237367  0.09972782  1
  I  I219  1  0.40027218  0.84237367  0.90027218  1
  I  I220  1  0.15762633  0.40027218  0.09972782  1
  I  I221  1  0.15762633  0.59972782  0.90027218  1
  I  I222  1  0.84237367  0.40027218  0.90027218  1
  I  I223  1  0.84237367  0.59972782  0.09972782  1
  I  I224  1  0.00000000  0.32745353  0.24812650  1
  I  I225  1  0.00000000  0.67254647  0.24812650  1
  I  I226  1  0.00000000  0.32745353  0.75187350  1
  I  I227  1  0.00000000  0.67254647  0.75187350  1
  I  I228  1  0.24812650  0.00000000  0.32745353  1
  I  I229  1  0.24812650  0.00000000  0.67254647  1
  I  I230  1  0.75187350  0.00000000  0.32745353  1
  I  I231  1  0.75187350  0.00000000  0.67254647  1
  I  I232  1  0.32745353  0.24812650  0.00000000  1
  I  I233  1  0.67254647  0.24812650  -0.00000000  1
  I  I234  1  0.32745353  0.75187350  -0.00000000  1
  I  I235  1  0.67254647  0.75187350  -0.00000000  1
  I  I236  1  0.32745353  0.00000000  0.75187350  1
  I  I237  1  0.67254647  -0.00000000  0.75187350  1
  I  I238  1  0.32745353  0.00000000  0.24812650  1
  I  I239  1  0.67254647  -0.00000000  0.24812650  1
  I  I240  1  0.00000000  0.24812650  0.67254647  1
  I  I241  1  0.00000000  0.24812650  0.32745353  1
  I  I242  1  0.00000000  0.75187350  0.67254647  1
  I  I243  1  0.00000000  0.75187350  0.32745353  1
  I  I244  1  0.24812650  0.32745353  0.00000000  1
  I  I245  1  0.24812650  0.67254647  -0.00000000  1
  I  I246  1  0.75187350  0.32745353  -0.00000000  1
  I  I247  1  0.75187350  0.67254647  -0.00000000  1
  I  I248  1  0.00000000  0.82745353  0.74812650  1
  I  I249  1  0.00000000  0.17254647  0.74812650  1
  I  I250  1  0.00000000  0.82745353  0.25187350  1
  I  I251  1  0.00000000  0.17254647  0.25187350  1
  I  I252  1  0.24812650  0.50000000  0.82745353  1
  I  I253  1  0.24812650  0.50000000  0.17254647  1
  I  I254  1  0.75187350  0.50000000  0.82745353  1
  I  I255  1  0.75187350  0.50000000  0.17254647  1
  I  I256  1  0.32745353  0.74812650  0.50000000  1
  I  I257  1  0.67254647  0.74812650  0.50000000  1
  I  I258  1  0.32745353  0.25187350  0.50000000  1
  I  I259  1  0.67254647  0.25187350  0.50000000  1
  I  I260  1  0.32745353  0.50000000  0.25187350  1
  I  I261  1  0.67254647  0.50000000  0.25187350  1
  I  I262  1  0.32745353  0.50000000  0.74812650  1
  I  I263  1  0.67254647  0.50000000  0.74812650  1
  I  I264  1  0.00000000  0.74812650  0.17254647  1
  I  I265  1  0.00000000  0.74812650  0.82745353  1
  I  I266  1  0.00000000  0.25187350  0.17254647  1
  I  I267  1  0.00000000  0.25187350  0.82745353  1
  I  I268  1  0.24812650  0.82745353  0.50000000  1
  I  I269  1  0.24812650  0.17254647  0.50000000  1
  I  I270  1  0.75187350  0.82745353  0.50000000  1
  I  I271  1  0.75187350  0.17254647  0.50000000  1
  I  I272  1  0.50000000  0.32745353  0.74812650  1
  I  I273  1  0.50000000  0.67254647  0.74812650  1
  I  I274  1  0.50000000  0.32745353  0.25187350  1
  I  I275  1  0.50000000  0.67254647  0.25187350  1
  I  I276  1  0.74812650  -0.00000000  0.82745353  1
  I  I277  1  0.74812650  -0.00000000  0.17254647  1
  I  I278  1  0.25187350  -0.00000000  0.82745353  1
  I  I279  1  0.25187350  -0.00000000  0.17254647  1
  I  I280  1  0.82745353  0.24812650  0.50000000  1
  I  I281  1  0.17254647  0.24812650  0.50000000  1
  I  I282  1  0.82745353  0.75187350  0.50000000  1
  I  I283  1  0.17254647  0.75187350  0.50000000  1
  I  I284  1  0.82745353  0.00000000  0.25187350  1
  I  I285  1  0.17254647  0.00000000  0.25187350  1
  I  I286  1  0.82745353  0.00000000  0.74812650  1
  I  I287  1  0.17254647  0.00000000  0.74812650  1
  I  I288  1  0.50000000  0.24812650  0.17254647  1
  I  I289  1  0.50000000  0.24812650  0.82745353  1
  I  I290  1  0.50000000  0.75187350  0.17254647  1
  I  I291  1  0.50000000  0.75187350  0.82745353  1
  I  I292  1  0.74812650  0.32745353  0.50000000  1
  I  I293  1  0.74812650  0.67254647  0.50000000  1
  I  I294  1  0.25187350  0.32745353  0.50000000  1
  I  I295  1  0.25187350  0.67254647  0.50000000  1
  I  I296  1  0.50000000  0.82745353  0.24812650  1
  I  I297  1  0.50000000  0.17254647  0.24812650  1
  I  I298  1  0.50000000  0.82745353  0.75187350  1
  I  I299  1  0.50000000  0.17254647  0.75187350  1
  I  I300  1  0.74812650  0.50000000  0.32745353  1
  I  I301  1  0.74812650  0.50000000  0.67254647  1
  I  I302  1  0.25187350  0.50000000  0.32745353  1
  I  I303  1  0.25187350  0.50000000  0.67254647  1
  I  I304  1  0.82745353  0.74812650  0.00000000  1
  I  I305  1  0.17254647  0.74812650  -0.00000000  1
  I  I306  1  0.82745353  0.25187350  -0.00000000  1
  I  I307  1  0.17254647  0.25187350  -0.00000000  1
  I  I308  1  0.82745353  0.50000000  0.75187350  1
  I  I309  1  0.17254647  0.50000000  0.75187350  1
  I  I310  1  0.82745353  0.50000000  0.24812650  1
  I  I311  1  0.17254647  0.50000000  0.24812650  1
  I  I312  1  0.50000000  0.74812650  0.67254647  1
  I  I313  1  0.50000000  0.74812650  0.32745353  1
  I  I314  1  0.50000000  0.25187350  0.67254647  1
  I  I315  1  0.50000000  0.25187350  0.32745353  1
  I  I316  1  0.74812650  0.82745353  0.00000000  1
  I  I317  1  0.74812650  0.17254647  -0.00000000  1
  I  I318  1  0.25187350  0.82745353  0.00000000  1
  I  I319  1  0.25187350  0.17254647  -0.00000000  1
  I  I320  1  0.50000000  0.50000000  0.50000000  1
  I  I321  1  0.50000000  0.00000000  0.00000000  1
  I  I322  1  0.00000000  0.50000000  0.00000000  1
  I  I323  1  0.00000000  0.00000000  0.50000000  1
  I  I324  1  0.75974057  0.00000000  0.00000000  1
  I  I325  1  0.24025943  0.00000000  0.00000000  1
  I  I326  1  0.00000000  0.75974057  0.00000000  1
  I  I327  1  0.00000000  0.24025943  0.00000000  1
  I  I328  1  0.00000000  0.00000000  0.75974057  1
  I  I329  1  0.00000000  0.00000000  0.24025943  1
  I  I330  1  0.75974057  0.50000000  0.50000000  1
  I  I331  1  0.24025943  0.50000000  0.50000000  1
  I  I332  1  0.00000000  0.25974057  0.50000000  1
  I  I333  1  0.00000000  0.74025943  0.50000000  1
  I  I334  1  0.00000000  0.50000000  0.25974057  1
  I  I335  1  0.00000000  0.50000000  0.74025943  1
  I  I336  1  0.25974057  0.00000000  0.50000000  1
  I  I337  1  0.74025943  0.00000000  0.50000000  1
  I  I338  1  0.50000000  0.75974057  0.50000000  1
  I  I339  1  0.50000000  0.24025943  0.50000000  1
  I  I340  1  0.50000000  0.00000000  0.25974057  1
  I  I341  1  0.50000000  0.00000000  0.74025943  1
  I  I342  1  0.25974057  0.50000000  0.00000000  1
  I  I343  1  0.74025943  0.50000000  -0.00000000  1
  I  I344  1  0.50000000  0.25974057  0.00000000  1
  I  I345  1  0.50000000  0.74025943  0.00000000  1
  I  I346  1  0.50000000  0.50000000  0.75974057  1
  I  I347  1  0.50000000  0.50000000  0.24025943  1
  I  I348  1  0.56878858  0.56878858  0.56878858  1
  I  I349  1  0.43121142  0.43121142  0.56878858  1
  I  I350  1  0.43121142  0.56878858  0.43121142  1
  I  I351  1  0.56878858  0.43121142  0.43121142  1
  I  I352  1  0.56878858  0.56878858  0.43121142  1
  I  I353  1  0.43121142  0.43121142  0.43121142  1
  I  I354  1  0.56878858  0.43121142  0.56878858  1
  I  I355  1  0.43121142  0.56878858  0.56878858  1
  I  I356  1  0.56878858  0.06878858  0.06878858  1
  I  I357  1  0.43121142  0.93121142  0.06878858  1
  I  I358  1  0.43121142  0.06878858  0.93121142  1
  I  I359  1  0.56878858  0.93121142  0.93121142  1
  I  I360  1  0.56878858  0.06878858  0.93121142  1
  I  I361  1  0.43121142  0.93121142  0.93121142  1
  I  I362  1  0.56878858  0.93121142  0.06878858  1
  I  I363  1  0.43121142  0.06878858  0.06878858  1
  I  I364  1  0.06878858  0.56878858  0.06878858  1
  I  I365  1  0.93121142  0.43121142  0.06878858  1
  I  I366  1  0.93121142  0.56878858  0.93121142  1
  I  I367  1  0.06878858  0.43121142  0.93121142  1
  I  I368  1  0.06878858  0.56878858  0.93121142  1
  I  I369  1  0.93121142  0.43121142  0.93121142  1
  I  I370  1  0.06878858  0.43121142  0.06878858  1
  I  I371  1  0.93121142  0.56878858  0.06878858  1
  I  I372  1  0.06878858  0.06878858  0.56878858  1
  I  I373  1  0.93121142  0.93121142  0.56878858  1
  I  I374  1  0.93121142  0.06878858  0.43121142  1
  I  I375  1  0.06878858  0.93121142  0.43121142  1
  I  I376  1  0.06878858  0.06878858  0.43121142  1
  I  I377  1  0.93121142  0.93121142  0.43121142  1
  I  I378  1  0.06878858  0.93121142  0.56878858  1
  I  I379  1  0.93121142  0.06878858  0.56878858  1
  I  I380  1  0.00000000  0.00000000  0.00000000  1
  I  I381  1  0.00000000  0.50000000  0.50000000  1
  I  I382  1  0.50000000  0.00000000  0.50000000  1
  I  I383  1  0.50000000  0.50000000  0.00000000  1
  Li  Li384  1  0.41667783  0.41667783  0.79079953  1
  Li  Li385  1  -0.41667783  -0.41667783  0.79079953  1
  Li  Li386  1  -0.41667783  0.41667783  -0.79079953  1
  Li  Li387  1  0.41667783  -0.41667783  -0.79079953  1
  Li  Li388  1  0.79079953  0.41667783  0.41667783  1
  Li  Li389  1  0.79079953  -0.41667783  -0.41667783  1
  Li  Li390  1  -0.79079953  -0.41667783  0.41667783  1
  Li  Li391  1  -0.79079953  0.41667783  -0.41667783  1
  Li  Li392  1  0.41667783  0.79079953  0.41667783  1
  Li  Li393  1  -0.41667783  0.79079953  -0.41667783  1
  Li  Li394  1  0.41667783  -0.79079953  -0.41667783  1
  Li  Li395  1  -0.41667783  -0.79079953  0.41667783  1
  Li  Li396  1  0.41667783  0.41667783  -0.79079953  1
  Li  Li397  1  -0.41667783  -0.41667783  -0.79079953  1
  Li  Li398  1  0.41667783  -0.41667783  0.79079953  1
  Li  Li399  1  -0.41667783  0.41667783  0.79079953  1
  Li  Li400  1  0.41667783  0.79079953  -0.41667783  1
  Li  Li401  1  -0.41667783  0.79079953  0.41667783  1
  Li  Li402  1  -0.41667783  -0.79079953  -0.41667783  1
  Li  Li403  1  0.41667783  -0.79079953  0.41667783  1
  Li  Li404  1  0.79079953  0.41667783  -0.41667783  1
  Li  Li405  1  0.79079953  -0.41667783  0.41667783  1
  Li  Li406  1  -0.79079953  0.41667783  0.41667783  1
  Li  Li407  1  -0.79079953  -0.41667783  -0.41667783  1
  Li  Li408  1  0.41667783  0.91667783  1.29079953  1
  Li  Li409  1  -0.41667783  0.08332217  1.29079953  1
  Li  Li410  1  -0.41667783  0.91667783  -0.29079953  1
  Li  Li411  1  0.41667783  0.08332217  -0.29079953  1
  Li  Li412  1  0.79079953  0.91667783  0.91667783  1
  Li  Li413  1  0.79079953  0.08332217  0.08332217  1
  Li  Li414  1  -0.79079953  0.08332217  0.91667783  1
  Li  Li415  1  -0.79079953  0.91667783  0.08332217  1
  Li  Li416  1  0.41667783  1.29079953  0.91667783  1
  Li  Li417  1  -0.41667783  1.29079953  0.08332217  1
  Li  Li418  1  0.41667783  -0.29079953  0.08332217  1
  Li  Li419  1  -0.41667783  -0.29079953  0.91667783  1
  Li  Li420  1  0.41667783  0.91667783  -0.29079953  1
  Li  Li421  1  -0.41667783  0.08332217  -0.29079953  1
  Li  Li422  1  0.41667783  0.08332217  1.29079953  1
  Li  Li423  1  -0.41667783  0.91667783  1.29079953  1
  Li  Li424  1  0.41667783  1.29079953  0.08332217  1
  Li  Li425  1  -0.41667783  1.29079953  0.91667783  1
  Li  Li426  1  -0.41667783  -0.29079953  0.08332217  1
  Li  Li427  1  0.41667783  -0.29079953  0.91667783  1
  Li  Li428  1  0.79079953  0.91667783  0.08332217  1
  Li  Li429  1  0.79079953  0.08332217  0.91667783  1
  Li  Li430  1  -0.79079953  0.91667783  0.91667783  1
  Li  Li431  1  -0.79079953  0.08332217  0.08332217  1
  Li  Li432  1  0.91667783  0.41667783  1.29079953  1
  Li  Li433  1  0.08332217  -0.41667783  1.29079953  1
  Li  Li434  1  0.08332217  0.41667783  -0.29079953  1
  Li  Li435  1  0.91667783  -0.41667783  -0.29079953  1
  Li  Li436  1  1.29079953  0.41667783  0.91667783  1
  Li  Li437  1  1.29079953  -0.41667783  0.08332217  1
  Li  Li438  1  -0.29079953  -0.41667783  0.91667783  1
  Li  Li439  1  -0.29079953  0.41667783  0.08332217  1
  Li  Li440  1  0.91667783  0.79079953  0.91667783  1
  Li  Li441  1  0.08332217  0.79079953  0.08332217  1
  Li  Li442  1  0.91667783  -0.79079953  0.08332217  1
  Li  Li443  1  0.08332217  -0.79079953  0.91667783  1
  Li  Li444  1  0.91667783  0.41667783  -0.29079953  1
  Li  Li445  1  0.08332217  -0.41667783  -0.29079953  1
  Li  Li446  1  0.91667783  -0.41667783  1.29079953  1
  Li  Li447  1  0.08332217  0.41667783  1.29079953  1
  Li  Li448  1  0.91667783  0.79079953  0.08332217  1
  Li  Li449  1  0.08332217  0.79079953  0.91667783  1
  Li  Li450  1  0.08332217  -0.79079953  0.08332217  1
  Li  Li451  1  0.91667783  -0.79079953  0.91667783  1
  Li  Li452  1  1.29079953  0.41667783  0.08332217  1
  Li  Li453  1  1.29079953  -0.41667783  0.91667783  1
  Li  Li454  1  -0.29079953  0.41667783  0.91667783  1
  Li  Li455  1  -0.29079953  -0.41667783  0.08332217  1
  Li  Li456  1  0.91667783  0.91667783  0.79079953  1
  Li  Li457  1  0.08332217  0.08332217  0.79079953  1
  Li  Li458  1  0.08332217  0.91667783  -0.79079953  1
  Li  Li459  1  0.91667783  0.08332217  -0.79079953  1
  Li  Li460  1  1.29079953  0.91667783  0.41667783  1
  Li  Li461  1  1.29079953  0.08332217  -0.41667783  1
  Li  Li462  1  -0.29079953  0.08332217  0.41667783  1
  Li  Li463  1  -0.29079953  0.91667783  -0.41667783  1
  Li  Li464  1  0.91667783  1.29079953  0.41667783  1
  Li  Li465  1  0.08332217  1.29079953  -0.41667783  1
  Li  Li466  1  0.91667783  -0.29079953  -0.41667783  1
  Li  Li467  1  0.08332217  -0.29079953  0.41667783  1
  Li  Li468  1  0.91667783  0.91667783  -0.79079953  1
  Li  Li469  1  0.08332217  0.08332217  -0.79079953  1
  Li  Li470  1  0.91667783  0.08332217  0.79079953  1
  Li  Li471  1  0.08332217  0.91667783  0.79079953  1
  Li  Li472  1  0.91667783  1.29079953  -0.41667783  1
  Li  Li473  1  0.08332217  1.29079953  0.41667783  1
  Li  Li474  1  0.08332217  -0.29079953  -0.41667783  1
  Li  Li475  1  0.91667783  -0.29079953  0.41667783  1
  Li  Li476  1  1.29079953  0.91667783  -0.41667783  1
  Li  Li477  1  1.29079953  0.08332217  0.41667783  1
  Li  Li478  1  -0.29079953  0.91667783  0.41667783  1
  Li  Li479  1  -0.29079953  0.08332217  -0.41667783  1
  Li  Li480  1  0.53981427  0.25000000  0.25000000  1
  Li  Li481  1  0.46018573  0.75000000  0.25000000  1
  Li  Li482  1  0.25000000  0.53981427  0.25000000  1
  Li  Li483  1  0.25000000  0.46018573  0.75000000  1
  Li  Li484  1  0.25000000  0.25000000  0.53981427  1
  Li  Li485  1  0.75000000  0.25000000  0.46018573  1
  Li  Li486  1  0.25000000  0.53981427  0.75000000  1
  Li  Li487  1  0.75000000  0.46018573  0.75000000  1
  Li  Li488  1  0.53981427  0.25000000  0.75000000  1
  Li  Li489  1  0.46018573  0.25000000  0.25000000  1
  Li  Li490  1  0.25000000  0.25000000  0.46018573  1
  Li  Li491  1  0.25000000  0.75000000  0.53981427  1
  Li  Li492  1  0.53981427  0.75000000  0.75000000  1
  Li  Li493  1  0.46018573  0.25000000  0.75000000  1
  Li  Li494  1  0.25000000  0.03981427  0.75000000  1
  Li  Li495  1  0.25000000  0.96018573  0.25000000  1
  Li  Li496  1  0.25000000  0.75000000  0.03981427  1
  Li  Li497  1  0.75000000  0.75000000  0.96018573  1
  Li  Li498  1  0.25000000  0.03981427  0.25000000  1
  Li  Li499  1  0.75000000  0.96018573  0.25000000  1
  Li  Li500  1  0.53981427  0.75000000  0.25000000  1
  Li  Li501  1  0.46018573  0.75000000  0.75000000  1
  Li  Li502  1  0.25000000  0.75000000  0.96018573  1
  Li  Li503  1  0.25000000  0.25000000  0.03981427  1
  Li  Li504  1  0.03981427  0.25000000  0.75000000  1
  Li  Li505  1  0.96018573  0.75000000  0.75000000  1
  Li  Li506  1  0.75000000  0.53981427  0.75000000  1
  Li  Li507  1  0.75000000  0.46018573  0.25000000  1
  Li  Li508  1  0.75000000  0.25000000  0.03981427  1
  Li  Li509  1  0.25000000  0.25000000  0.96018573  1
  Li  Li510  1  0.75000000  0.53981427  0.25000000  1
  Li  Li511  1  0.25000000  0.46018573  0.25000000  1
  Li  Li512  1  0.03981427  0.25000000  0.25000000  1
  Li  Li513  1  0.96018573  0.25000000  0.75000000  1
  Li  Li514  1  0.75000000  0.25000000  0.96018573  1
  Li  Li515  1  0.75000000  0.75000000  0.03981427  1
  Li  Li516  1  0.03981427  0.75000000  0.25000000  1
  Li  Li517  1  0.96018573  0.25000000  0.25000000  1
  Li  Li518  1  0.75000000  0.03981427  0.25000000  1
  Li  Li519  1  0.75000000  0.96018573  0.75000000  1
  Li  Li520  1  0.75000000  0.75000000  0.53981427  1
  Li  Li521  1  0.25000000  0.75000000  0.46018573  1
  Li  Li522  1  0.75000000  0.03981427  0.75000000  1
  Li  Li523  1  0.25000000  0.96018573  0.75000000  1
  Li  Li524  1  0.03981427  0.75000000  0.75000000  1
  Li  Li525  1  0.96018573  0.75000000  0.25000000  1
  Li  Li526  1  0.75000000  0.75000000  0.46018573  1
  Li  Li527  1  0.75000000  0.25000000  0.53981427  1
  Li  Li528  1  0.32350700  0.32350700  0.91323983  1
  Li  Li529  1  0.67649300  0.67649300  0.91323983  1
  Li  Li530  1  0.67649300  0.32350700  0.08676017  1
  Li  Li531  1  0.32350700  0.67649300  0.08676017  1
  Li  Li532  1  0.91323983  0.32350700  0.32350700  1
  Li  Li533  1  0.91323983  0.67649300  0.67649300  1
  Li  Li534  1  0.08676017  0.67649300  0.32350700  1
  Li  Li535  1  0.08676017  0.32350700  0.67649300  1
  Li  Li536  1  0.32350700  0.91323983  0.32350700  1
  Li  Li537  1  0.67649300  0.91323983  0.67649300  1
  Li  Li538  1  0.32350700  0.08676017  0.67649300  1
  Li  Li539  1  0.67649300  0.08676017  0.32350700  1
  Li  Li540  1  0.32350700  0.32350700  0.08676017  1
  Li  Li541  1  0.67649300  0.67649300  0.08676017  1
  Li  Li542  1  0.32350700  0.67649300  0.91323983  1
  Li  Li543  1  0.67649300  0.32350700  0.91323983  1
  Li  Li544  1  0.32350700  0.91323983  0.67649300  1
  Li  Li545  1  0.67649300  0.91323983  0.32350700  1
  Li  Li546  1  0.67649300  0.08676017  0.67649300  1
  Li  Li547  1  0.32350700  0.08676017  0.32350700  1
  Li  Li548  1  0.91323983  0.32350700  0.67649300  1
  Li  Li549  1  0.91323983  0.67649300  0.32350700  1
  Li  Li550  1  0.08676017  0.32350700  0.32350700  1
  Li  Li551  1  0.08676017  0.67649300  0.67649300  1
  Li  Li552  1  0.32350700  0.82350700  0.41323983  1
  Li  Li553  1  0.67649300  0.17649300  0.41323983  1
  Li  Li554  1  0.67649300  0.82350700  0.58676017  1
  Li  Li555  1  0.32350700  0.17649300  0.58676017  1
  Li  Li556  1  0.91323983  0.82350700  0.82350700  1
  Li  Li557  1  0.91323983  0.17649300  0.17649300  1
  Li  Li558  1  0.08676017  0.17649300  0.82350700  1
  Li  Li559  1  0.08676017  0.82350700  0.17649300  1
  Li  Li560  1  0.32350700  0.41323983  0.82350700  1
  Li  Li561  1  0.67649300  0.41323983  0.17649300  1
  Li  Li562  1  0.32350700  0.58676017  0.17649300  1
  Li  Li563  1  0.67649300  0.58676017  0.82350700  1
  Li  Li564  1  0.32350700  0.82350700  0.58676017  1
  Li  Li565  1  0.67649300  0.17649300  0.58676017  1
  Li  Li566  1  0.32350700  0.17649300  0.41323983  1
  Li  Li567  1  0.67649300  0.82350700  0.41323983  1
  Li  Li568  1  0.32350700  0.41323983  0.17649300  1
  Li  Li569  1  0.67649300  0.41323983  0.82350700  1
  Li  Li570  1  0.67649300  0.58676017  0.17649300  1
  Li  Li571  1  0.32350700  0.58676017  0.82350700  1
  Li  Li572  1  0.91323983  0.82350700  0.17649300  1
  Li  Li573  1  0.91323983  0.17649300  0.82350700  1
  Li  Li574  1  0.08676017  0.82350700  0.82350700  1
  Li  Li575  1  0.08676017  0.17649300  0.17649300  1
  Li  Li576  1  0.82350700  0.32350700  0.41323983  1
  Li  Li577  1  0.17649300  0.67649300  0.41323983  1
  Li  Li578  1  0.17649300  0.32350700  0.58676017  1
  Li  Li579  1  0.82350700  0.67649300  0.58676017  1
  Li  Li580  1  0.41323983  0.32350700  0.82350700  1
  Li  Li581  1  0.41323983  0.67649300  0.17649300  1
  Li  Li582  1  0.58676017  0.67649300  0.82350700  1
  Li  Li583  1  0.58676017  0.32350700  0.17649300  1
  Li  Li584  1  0.82350700  0.91323983  0.82350700  1
  Li  Li585  1  0.17649300  0.91323983  0.17649300  1
  Li  Li586  1  0.82350700  0.08676017  0.17649300  1
  Li  Li587  1  0.17649300  0.08676017  0.82350700  1
  Li  Li588  1  0.82350700  0.32350700  0.58676017  1
  Li  Li589  1  0.17649300  0.67649300  0.58676017  1
  Li  Li590  1  0.82350700  0.67649300  0.41323983  1
  Li  Li591  1  0.17649300  0.32350700  0.41323983  1
  Li  Li592  1  0.82350700  0.91323983  0.17649300  1
  Li  Li593  1  0.17649300  0.91323983  0.82350700  1
  Li  Li594  1  0.17649300  0.08676017  0.17649300  1
  Li  Li595  1  0.82350700  0.08676017  0.82350700  1
  Li  Li596  1  0.41323983  0.32350700  0.17649300  1
  Li  Li597  1  0.41323983  0.67649300  0.82350700  1
  Li  Li598  1  0.58676017  0.32350700  0.82350700  1
  Li  Li599  1  0.58676017  0.67649300  0.17649300  1
  Li  Li600  1  0.82350700  0.82350700  0.91323983  1
  Li  Li601  1  0.17649300  0.17649300  0.91323983  1
  Li  Li602  1  0.17649300  0.82350700  0.08676017  1
  Li  Li603  1  0.82350700  0.17649300  0.08676017  1
  Li  Li604  1  0.41323983  0.82350700  0.32350700  1
  Li  Li605  1  0.41323983  0.17649300  0.67649300  1
  Li  Li606  1  0.58676017  0.17649300  0.32350700  1
  Li  Li607  1  0.58676017  0.82350700  0.67649300  1
  Li  Li608  1  0.82350700  0.41323983  0.32350700  1
  Li  Li609  1  0.17649300  0.41323983  0.67649300  1
  Li  Li610  1  0.82350700  0.58676017  0.67649300  1
  Li  Li611  1  0.17649300  0.58676017  0.32350700  1
  Li  Li612  1  0.82350700  0.82350700  0.08676017  1
  Li  Li613  1  0.17649300  0.17649300  0.08676017  1
  Li  Li614  1  0.82350700  0.17649300  0.91323983  1
  Li  Li615  1  0.17649300  0.82350700  0.91323983  1
  Li  Li616  1  0.82350700  0.41323983  0.67649300  1
  Li  Li617  1  0.17649300  0.41323983  0.32350700  1
  Li  Li618  1  0.17649300  0.58676017  0.67649300  1
  Li  Li619  1  0.82350700  0.58676017  0.32350700  1
  Li  Li620  1  0.41323983  0.82350700  0.67649300  1
  Li  Li621  1  0.41323983  0.17649300  0.32350700  1
  Li  Li622  1  0.58676017  0.82350700  0.32350700  1
  Li  Li623  1  0.58676017  0.17649300  0.67649300  1
  Li  Li624  1  0.00000000  0.55950331  0.55950331  1
  Li  Li625  1  0.00000000  0.44049669  0.55950331  1
  Li  Li626  1  0.00000000  0.55950331  0.44049669  1
  Li  Li627  1  0.00000000  0.44049669  0.44049669  1
  Li  Li628  1  0.55950331  0.00000000  0.55950331  1
  Li  Li629  1  0.55950331  0.00000000  0.44049669  1
  Li  Li630  1  0.44049669  -0.00000000  0.55950331  1
  Li  Li631  1  0.44049669  -0.00000000  0.44049669  1
  Li  Li632  1  0.55950331  0.55950331  0.00000000  1
  Li  Li633  1  0.44049669  0.55950331  0.00000000  1
  Li  Li634  1  0.55950331  0.44049669  -0.00000000  1
  Li  Li635  1  0.44049669  0.44049669  -0.00000000  1
  Li  Li636  1  0.00000000  0.05950331  0.05950331  1
  Li  Li637  1  0.00000000  0.94049669  0.05950331  1
  Li  Li638  1  0.00000000  0.05950331  0.94049669  1
  Li  Li639  1  0.00000000  0.94049669  0.94049669  1
  Li  Li640  1  0.55950331  0.50000000  0.05950331  1
  Li  Li641  1  0.55950331  0.50000000  0.94049669  1
  Li  Li642  1  0.44049669  0.50000000  0.05950331  1
  Li  Li643  1  0.44049669  0.50000000  0.94049669  1
  Li  Li644  1  0.55950331  0.05950331  0.50000000  1
  Li  Li645  1  0.44049669  0.05950331  0.50000000  1
  Li  Li646  1  0.55950331  0.94049669  0.50000000  1
  Li  Li647  1  0.44049669  0.94049669  0.50000000  1
  Li  Li648  1  0.50000000  0.55950331  0.05950331  1
  Li  Li649  1  0.50000000  0.44049669  0.05950331  1
  Li  Li650  1  0.50000000  0.55950331  0.94049669  1
  Li  Li651  1  0.50000000  0.44049669  0.94049669  1
  Li  Li652  1  0.05950331  0.00000000  0.05950331  1
  Li  Li653  1  0.05950331  0.00000000  0.94049669  1
  Li  Li654  1  0.94049669  0.00000000  0.05950331  1
  Li  Li655  1  0.94049669  0.00000000  0.94049669  1
  Li  Li656  1  0.05950331  0.55950331  0.50000000  1
  Li  Li657  1  0.94049669  0.55950331  0.50000000  1
  Li  Li658  1  0.05950331  0.44049669  0.50000000  1
  Li  Li659  1  0.94049669  0.44049669  0.50000000  1
  Li  Li660  1  0.50000000  0.05950331  0.55950331  1
  Li  Li661  1  0.50000000  0.94049669  0.55950331  1
  Li  Li662  1  0.50000000  0.05950331  0.44049669  1
  Li  Li663  1  0.50000000  0.94049669  0.44049669  1
  Li  Li664  1  0.05950331  0.50000000  0.55950331  1
  Li  Li665  1  0.05950331  0.50000000  0.44049669  1
  Li  Li666  1  0.94049669  0.50000000  0.55950331  1
  Li  Li667  1  0.94049669  0.50000000  0.44049669  1
  Li  Li668  1  0.05950331  0.05950331  0.00000000  1
  Li  Li669  1  0.94049669  0.05950331  0.00000000  1
  Li  Li670  1  0.05950331  0.94049669  0.00000000  1
  Li  Li671  1  0.94049669  0.94049669  0.00000000  1
  Li  Li672  1  0.00000000  0.93186004  0.19317127  1
  Li  Li673  1  0.00000000  0.06813996  0.19317127  1
  Li  Li674  1  0.00000000  0.93186004  0.80682873  1
  Li  Li675  1  0.00000000  0.06813996  0.80682873  1
  Li  Li676  1  0.19317127  0.00000000  0.93186004  1
  Li  Li677  1  0.19317127  0.00000000  0.06813996  1
  Li  Li678  1  0.80682873  0.00000000  0.93186004  1
  Li  Li679  1  0.80682873  0.00000000  0.06813996  1
  Li  Li680  1  0.93186004  0.19317127  0.00000000  1
  Li  Li681  1  0.06813996  0.19317127  0.00000000  1
  Li  Li682  1  0.93186004  0.80682873  0.00000000  1
  Li  Li683  1  0.06813996  0.80682873  0.00000000  1
  Li  Li684  1  0.93186004  0.00000000  0.80682873  1
  Li  Li685  1  0.06813996  -0.00000000  0.80682873  1
  Li  Li686  1  0.93186004  0.00000000  0.19317127  1
  Li  Li687  1  0.06813996  -0.00000000  0.19317127  1
  Li  Li688  1  0.00000000  0.19317127  0.06813996  1
  Li  Li689  1  0.00000000  0.19317127  0.93186004  1
  Li  Li690  1  0.00000000  0.80682873  0.06813996  1
  Li  Li691  1  0.00000000  0.80682873  0.93186004  1
  Li  Li692  1  0.19317127  0.93186004  0.00000000  1
  Li  Li693  1  0.19317127  0.06813996  0.00000000  1
  Li  Li694  1  0.80682873  0.93186004  0.00000000  1
  Li  Li695  1  0.80682873  0.06813996  0.00000000  1
  Li  Li696  1  0.00000000  0.43186004  0.69317127  1
  Li  Li697  1  0.00000000  0.56813996  0.69317127  1
  Li  Li698  1  0.00000000  0.43186004  0.30682873  1
  Li  Li699  1  0.00000000  0.56813996  0.30682873  1
  Li  Li700  1  0.19317127  0.50000000  0.43186004  1
  Li  Li701  1  0.19317127  0.50000000  0.56813996  1
  Li  Li702  1  0.80682873  0.50000000  0.43186004  1
  Li  Li703  1  0.80682873  0.50000000  0.56813996  1
  Li  Li704  1  0.93186004  0.69317127  0.50000000  1
  Li  Li705  1  0.06813996  0.69317127  0.50000000  1
  Li  Li706  1  0.93186004  0.30682873  0.50000000  1
  Li  Li707  1  0.06813996  0.30682873  0.50000000  1
  Li  Li708  1  0.93186004  0.50000000  0.30682873  1
  Li  Li709  1  0.06813996  0.50000000  0.30682873  1
  Li  Li710  1  0.93186004  0.50000000  0.69317127  1
  Li  Li711  1  0.06813996  0.50000000  0.69317127  1
  Li  Li712  1  0.00000000  0.69317127  0.56813996  1
  Li  Li713  1  0.00000000  0.69317127  0.43186004  1
  Li  Li714  1  0.00000000  0.30682873  0.56813996  1
  Li  Li715  1  0.00000000  0.30682873  0.43186004  1
  Li  Li716  1  0.19317127  0.43186004  0.50000000  1
  Li  Li717  1  0.19317127  0.56813996  0.50000000  1
  Li  Li718  1  0.80682873  0.43186004  0.50000000  1
  Li  Li719  1  0.80682873  0.56813996  0.50000000  1
  Li  Li720  1  0.50000000  0.93186004  0.69317127  1
  Li  Li721  1  0.50000000  0.06813996  0.69317127  1
  Li  Li722  1  0.50000000  0.93186004  0.30682873  1
  Li  Li723  1  0.50000000  0.06813996  0.30682873  1
  Li  Li724  1  0.69317127  0.00000000  0.43186004  1
  Li  Li725  1  0.69317127  0.00000000  0.56813996  1
  Li  Li726  1  0.30682873  -0.00000000  0.43186004  1
  Li  Li727  1  0.30682873  -0.00000000  0.56813996  1
  Li  Li728  1  0.43186004  0.19317127  0.50000000  1
  Li  Li729  1  0.56813996  0.19317127  0.50000000  1
  Li  Li730  1  0.43186004  0.80682873  0.50000000  1
  Li  Li731  1  0.56813996  0.80682873  0.50000000  1
  Li  Li732  1  0.43186004  0.00000000  0.30682873  1
  Li  Li733  1  0.56813996  0.00000000  0.30682873  1
  Li  Li734  1  0.43186004  0.00000000  0.69317127  1
  Li  Li735  1  0.56813996  0.00000000  0.69317127  1
  Li  Li736  1  0.50000000  0.19317127  0.56813996  1
  Li  Li737  1  0.50000000  0.19317127  0.43186004  1
  Li  Li738  1  0.50000000  0.80682873  0.56813996  1
  Li  Li739  1  0.50000000  0.80682873  0.43186004  1
  Li  Li740  1  0.69317127  0.93186004  0.50000000  1
  Li  Li741  1  0.69317127  0.06813996  0.50000000  1
  Li  Li742  1  0.30682873  0.93186004  0.50000000  1
  Li  Li743  1  0.30682873  0.06813996  0.50000000  1
  Li  Li744  1  0.50000000  0.43186004  0.19317127  1
  Li  Li745  1  0.50000000  0.56813996  0.19317127  1
  Li  Li746  1  0.50000000  0.43186004  0.80682873  1
  Li  Li747  1  0.50000000  0.56813996  0.80682873  1
  Li  Li748  1  0.69317127  0.50000000  0.93186004  1
  Li  Li749  1  0.69317127  0.50000000  0.06813996  1
  Li  Li750  1  0.30682873  0.50000000  0.93186004  1
  Li  Li751  1  0.30682873  0.50000000  0.06813996  1
  Li  Li752  1  0.43186004  0.69317127  0.00000000  1
  Li  Li753  1  0.56813996  0.69317127  0.00000000  1
  Li  Li754  1  0.43186004  0.30682873  0.00000000  1
  Li  Li755  1  0.56813996  0.30682873  -0.00000000  1
  Li  Li756  1  0.43186004  0.50000000  0.80682873  1
  Li  Li757  1  0.56813996  0.50000000  0.80682873  1
  Li  Li758  1  0.43186004  0.50000000  0.19317127  1
  Li  Li759  1  0.56813996  0.50000000  0.19317127  1
  Li  Li760  1  0.50000000  0.69317127  0.06813996  1
  Li  Li761  1  0.50000000  0.69317127  0.93186004  1
  Li  Li762  1  0.50000000  0.30682873  0.06813996  1
  Li  Li763  1  0.50000000  0.30682873  0.93186004  1
  Li  Li764  1  0.69317127  0.43186004  0.00000000  1
  Li  Li765  1  0.69317127  0.56813996  0.00000000  1
  Li  Li766  1  0.30682873  0.43186004  0.00000000  1
  Li  Li767  1  0.30682873  0.56813996  -0.00000000  1
