# generated using pymatgen
data_Li2Zr(Br2Cl)2
_symmetry_space_group_name_H-M   'P 1'
_cell_length_a   27.09045388
_cell_length_b   27.09045388
_cell_length_c   27.09045388
_cell_angle_alpha   90.00000000
_cell_angle_beta   90.00000000
_cell_angle_gamma   90.00000000
_symmetry_Int_Tables_number   1
_chemical_formula_structural   Li2Zr(Br2Cl)2
_chemical_formula_sum   'Li192 Zr96 Br384 Cl192'
_cell_volume   19881.48610099
_cell_formula_units_Z   96
loop_
 _symmetry_equiv_pos_site_id
 _symmetry_equiv_pos_as_xyz
  1  'x, y, z'
loop_
 _atom_site_type_symbol
 _atom_site_label
 _atom_site_symmetry_multiplicity
 _atom_site_fract_x
 _atom_site_fract_y
 _atom_site_fract_z
 _atom_site_occupancy
  Br  Br0  1  0.72867125  0.19021551  0.62599399  1
  Br  Br1  1  -0.72867125  -0.19021551  0.62599399  1
  Br  Br2  1  -0.72867125  0.19021551  -0.62599399  1
  Br  Br3  1  0.72867125  -0.19021551  -0.62599399  1
  Br  Br4  1  0.62599399  0.72867125  0.19021551  1
  Br  Br5  1  0.62599399  -0.72867125  -0.19021551  1
  Br  Br6  1  -0.62599399  -0.72867125  0.19021551  1
  Br  Br7  1  -0.62599399  0.72867125  -0.19021551  1
  Br  Br8  1  0.19021551  0.62599399  0.72867125  1
  Br  Br9  1  -0.19021551  0.62599399  -0.72867125  1
  Br  Br10  1  0.19021551  -0.62599399  -0.72867125  1
  Br  Br11  1  -0.19021551  -0.62599399  0.72867125  1
  Br  Br12  1  0.19021551  0.72867125  -0.62599399  1
  Br  Br13  1  -0.19021551  -0.72867125  -0.62599399  1
  Br  Br14  1  0.19021551  -0.72867125  0.62599399  1
  Br  Br15  1  -0.19021551  0.72867125  0.62599399  1
  Br  Br16  1  0.72867125  0.62599399  -0.19021551  1
  Br  Br17  1  -0.72867125  0.62599399  0.19021551  1
  Br  Br18  1  -0.72867125  -0.62599399  -0.19021551  1
  Br  Br19  1  0.72867125  -0.62599399  0.19021551  1
  Br  Br20  1  0.62599399  0.19021551  -0.72867125  1
  Br  Br21  1  0.62599399  -0.19021551  0.72867125  1
  Br  Br22  1  -0.62599399  0.19021551  0.72867125  1
  Br  Br23  1  -0.62599399  -0.19021551  -0.72867125  1
  Br  Br24  1  -0.72867125  -0.19021551  -0.62599399  1
  Br  Br25  1  0.72867125  0.19021551  -0.62599399  1
  Br  Br26  1  0.72867125  -0.19021551  0.62599399  1
  Br  Br27  1  -0.72867125  0.19021551  0.62599399  1
  Br  Br28  1  -0.62599399  -0.72867125  -0.19021551  1
  Br  Br29  1  -0.62599399  0.72867125  0.19021551  1
  Br  Br30  1  0.62599399  0.72867125  -0.19021551  1
  Br  Br31  1  0.62599399  -0.72867125  0.19021551  1
  Br  Br32  1  -0.19021551  -0.62599399  -0.72867125  1
  Br  Br33  1  0.19021551  -0.62599399  0.72867125  1
  Br  Br34  1  -0.19021551  0.62599399  0.72867125  1
  Br  Br35  1  0.19021551  0.62599399  -0.72867125  1
  Br  Br36  1  -0.19021551  -0.72867125  0.62599399  1
  Br  Br37  1  0.19021551  0.72867125  0.62599399  1
  Br  Br38  1  -0.19021551  0.72867125  -0.62599399  1
  Br  Br39  1  0.19021551  -0.72867125  -0.62599399  1
  Br  Br40  1  -0.72867125  -0.62599399  0.19021551  1
  Br  Br41  1  0.72867125  -0.62599399  -0.19021551  1
  Br  Br42  1  0.72867125  0.62599399  0.19021551  1
  Br  Br43  1  -0.72867125  0.62599399  -0.19021551  1
  Br  Br44  1  -0.62599399  -0.19021551  0.72867125  1
  Br  Br45  1  -0.62599399  0.19021551  -0.72867125  1
  Br  Br46  1  0.62599399  -0.19021551  -0.72867125  1
  Br  Br47  1  0.62599399  0.19021551  0.72867125  1
  Br  Br48  1  0.72867125  0.69021551  1.12599399  1
  Br  Br49  1  -0.72867125  0.30978449  1.12599399  1
  Br  Br50  1  -0.72867125  0.69021551  -0.12599399  1
  Br  Br51  1  0.72867125  0.30978449  -0.12599399  1
  Br  Br52  1  0.62599399  1.22867125  0.69021551  1
  Br  Br53  1  0.62599399  -0.22867125  0.30978449  1
  Br  Br54  1  -0.62599399  -0.22867125  0.69021551  1
  Br  Br55  1  -0.62599399  1.22867125  0.30978449  1
  Br  Br56  1  0.19021551  1.12599399  1.22867125  1
  Br  Br57  1  -0.19021551  1.12599399  -0.22867125  1
  Br  Br58  1  0.19021551  -0.12599399  -0.22867125  1
  Br  Br59  1  -0.19021551  -0.12599399  1.22867125  1
  Br  Br60  1  0.19021551  1.22867125  -0.12599399  1
  Br  Br61  1  -0.19021551  -0.22867125  -0.12599399  1
  Br  Br62  1  0.19021551  -0.22867125  1.12599399  1
  Br  Br63  1  -0.19021551  1.22867125  1.12599399  1
  Br  Br64  1  0.72867125  1.12599399  0.30978449  1
  Br  Br65  1  -0.72867125  1.12599399  0.69021551  1
  Br  Br66  1  -0.72867125  -0.12599399  0.30978449  1
  Br  Br67  1  0.72867125  -0.12599399  0.69021551  1
  Br  Br68  1  0.62599399  0.69021551  -0.22867125  1
  Br  Br69  1  0.62599399  0.30978449  1.22867125  1
  Br  Br70  1  -0.62599399  0.69021551  1.22867125  1
  Br  Br71  1  -0.62599399  0.30978449  -0.22867125  1
  Br  Br72  1  -0.72867125  0.30978449  -0.12599399  1
  Br  Br73  1  0.72867125  0.69021551  -0.12599399  1
  Br  Br74  1  0.72867125  0.30978449  1.12599399  1
  Br  Br75  1  -0.72867125  0.69021551  1.12599399  1
  Br  Br76  1  -0.62599399  -0.22867125  0.30978449  1
  Br  Br77  1  -0.62599399  1.22867125  0.69021551  1
  Br  Br78  1  0.62599399  1.22867125  0.30978449  1
  Br  Br79  1  0.62599399  -0.22867125  0.69021551  1
  Br  Br80  1  -0.19021551  -0.12599399  -0.22867125  1
  Br  Br81  1  0.19021551  -0.12599399  1.22867125  1
  Br  Br82  1  -0.19021551  1.12599399  1.22867125  1
  Br  Br83  1  0.19021551  1.12599399  -0.22867125  1
  Br  Br84  1  -0.19021551  -0.22867125  1.12599399  1
  Br  Br85  1  0.19021551  1.22867125  1.12599399  1
  Br  Br86  1  -0.19021551  1.22867125  -0.12599399  1
  Br  Br87  1  0.19021551  -0.22867125  -0.12599399  1
  Br  Br88  1  -0.72867125  -0.12599399  0.69021551  1
  Br  Br89  1  0.72867125  -0.12599399  0.30978449  1
  Br  Br90  1  0.72867125  1.12599399  0.69021551  1
  Br  Br91  1  -0.72867125  1.12599399  0.30978449  1
  Br  Br92  1  -0.62599399  0.30978449  1.22867125  1
  Br  Br93  1  -0.62599399  0.69021551  -0.22867125  1
  Br  Br94  1  0.62599399  0.30978449  -0.22867125  1
  Br  Br95  1  0.62599399  0.69021551  1.22867125  1
  Br  Br96  1  1.22867125  0.19021551  1.12599399  1
  Br  Br97  1  -0.22867125  -0.19021551  1.12599399  1
  Br  Br98  1  -0.22867125  0.19021551  -0.12599399  1
  Br  Br99  1  1.22867125  -0.19021551  -0.12599399  1
  Br  Br100  1  1.12599399  0.72867125  0.69021551  1
  Br  Br101  1  1.12599399  -0.72867125  0.30978449  1
  Br  Br102  1  -0.12599399  -0.72867125  0.69021551  1
  Br  Br103  1  -0.12599399  0.72867125  0.30978449  1
  Br  Br104  1  0.69021551  0.62599399  1.22867125  1
  Br  Br105  1  0.30978449  0.62599399  -0.22867125  1
  Br  Br106  1  0.69021551  -0.62599399  -0.22867125  1
  Br  Br107  1  0.30978449  -0.62599399  1.22867125  1
  Br  Br108  1  0.69021551  0.72867125  -0.12599399  1
  Br  Br109  1  0.30978449  -0.72867125  -0.12599399  1
  Br  Br110  1  0.69021551  -0.72867125  1.12599399  1
  Br  Br111  1  0.30978449  0.72867125  1.12599399  1
  Br  Br112  1  1.22867125  0.62599399  0.30978449  1
  Br  Br113  1  -0.22867125  0.62599399  0.69021551  1
  Br  Br114  1  -0.22867125  -0.62599399  0.30978449  1
  Br  Br115  1  1.22867125  -0.62599399  0.69021551  1
  Br  Br116  1  1.12599399  0.19021551  -0.22867125  1
  Br  Br117  1  1.12599399  -0.19021551  1.22867125  1
  Br  Br118  1  -0.12599399  0.19021551  1.22867125  1
  Br  Br119  1  -0.12599399  -0.19021551  -0.22867125  1
  Br  Br120  1  -0.22867125  -0.19021551  -0.12599399  1
  Br  Br121  1  1.22867125  0.19021551  -0.12599399  1
  Br  Br122  1  1.22867125  -0.19021551  1.12599399  1
  Br  Br123  1  -0.22867125  0.19021551  1.12599399  1
  Br  Br124  1  -0.12599399  -0.72867125  0.30978449  1
  Br  Br125  1  -0.12599399  0.72867125  0.69021551  1
  Br  Br126  1  1.12599399  0.72867125  0.30978449  1
  Br  Br127  1  1.12599399  -0.72867125  0.69021551  1
  Br  Br128  1  0.30978449  -0.62599399  -0.22867125  1
  Br  Br129  1  0.69021551  -0.62599399  1.22867125  1
  Br  Br130  1  0.30978449  0.62599399  1.22867125  1
  Br  Br131  1  0.69021551  0.62599399  -0.22867125  1
  Br  Br132  1  0.30978449  -0.72867125  1.12599399  1
  Br  Br133  1  0.69021551  0.72867125  1.12599399  1
  Br  Br134  1  0.30978449  0.72867125  -0.12599399  1
  Br  Br135  1  0.69021551  -0.72867125  -0.12599399  1
  Br  Br136  1  -0.22867125  -0.62599399  0.69021551  1
  Br  Br137  1  1.22867125  -0.62599399  0.30978449  1
  Br  Br138  1  1.22867125  0.62599399  0.69021551  1
  Br  Br139  1  -0.22867125  0.62599399  0.30978449  1
  Br  Br140  1  -0.12599399  -0.19021551  1.22867125  1
  Br  Br141  1  -0.12599399  0.19021551  -0.22867125  1
  Br  Br142  1  1.12599399  -0.19021551  -0.22867125  1
  Br  Br143  1  1.12599399  0.19021551  1.22867125  1
  Br  Br144  1  1.22867125  0.69021551  0.62599399  1
  Br  Br145  1  -0.22867125  0.30978449  0.62599399  1
  Br  Br146  1  -0.22867125  0.69021551  -0.62599399  1
  Br  Br147  1  1.22867125  0.30978449  -0.62599399  1
  Br  Br148  1  1.12599399  1.22867125  0.19021551  1
  Br  Br149  1  1.12599399  -0.22867125  -0.19021551  1
  Br  Br150  1  -0.12599399  -0.22867125  0.19021551  1
  Br  Br151  1  -0.12599399  1.22867125  -0.19021551  1
  Br  Br152  1  0.69021551  1.12599399  0.72867125  1
  Br  Br153  1  0.30978449  1.12599399  -0.72867125  1
  Br  Br154  1  0.69021551  -0.12599399  -0.72867125  1
  Br  Br155  1  0.30978449  -0.12599399  0.72867125  1
  Br  Br156  1  0.69021551  1.22867125  -0.62599399  1
  Br  Br157  1  0.30978449  -0.22867125  -0.62599399  1
  Br  Br158  1  0.69021551  -0.22867125  0.62599399  1
  Br  Br159  1  0.30978449  1.22867125  0.62599399  1
  Br  Br160  1  1.22867125  1.12599399  -0.19021551  1
  Br  Br161  1  -0.22867125  1.12599399  0.19021551  1
  Br  Br162  1  -0.22867125  -0.12599399  -0.19021551  1
  Br  Br163  1  1.22867125  -0.12599399  0.19021551  1
  Br  Br164  1  1.12599399  0.69021551  -0.72867125  1
  Br  Br165  1  1.12599399  0.30978449  0.72867125  1
  Br  Br166  1  -0.12599399  0.69021551  0.72867125  1
  Br  Br167  1  -0.12599399  0.30978449  -0.72867125  1
  Br  Br168  1  -0.22867125  0.30978449  -0.62599399  1
  Br  Br169  1  1.22867125  0.69021551  -0.62599399  1
  Br  Br170  1  1.22867125  0.30978449  0.62599399  1
  Br  Br171  1  -0.22867125  0.69021551  0.62599399  1
  Br  Br172  1  -0.12599399  -0.22867125  -0.19021551  1
  Br  Br173  1  -0.12599399  1.22867125  0.19021551  1
  Br  Br174  1  1.12599399  1.22867125  -0.19021551  1
  Br  Br175  1  1.12599399  -0.22867125  0.19021551  1
  Br  Br176  1  0.30978449  -0.12599399  -0.72867125  1
  Br  Br177  1  0.69021551  -0.12599399  0.72867125  1
  Br  Br178  1  0.30978449  1.12599399  0.72867125  1
  Br  Br179  1  0.69021551  1.12599399  -0.72867125  1
  Br  Br180  1  0.30978449  -0.22867125  0.62599399  1
  Br  Br181  1  0.69021551  1.22867125  0.62599399  1
  Br  Br182  1  0.30978449  1.22867125  -0.62599399  1
  Br  Br183  1  0.69021551  -0.22867125  -0.62599399  1
  Br  Br184  1  -0.22867125  -0.12599399  0.19021551  1
  Br  Br185  1  1.22867125  -0.12599399  -0.19021551  1
  Br  Br186  1  1.22867125  1.12599399  0.19021551  1
  Br  Br187  1  -0.22867125  1.12599399  -0.19021551  1
  Br  Br188  1  -0.12599399  0.30978449  0.72867125  1
  Br  Br189  1  -0.12599399  0.69021551  -0.72867125  1
  Br  Br190  1  1.12599399  0.30978449  -0.72867125  1
  Br  Br191  1  1.12599399  0.69021551  0.72867125  1
  Br  Br192  1  0.40006666  0.34251809  0.95159942  1
  Br  Br193  1  0.59993334  0.65748191  0.95159942  1
  Br  Br194  1  0.59993334  0.34251809  0.04840058  1
  Br  Br195  1  0.40006666  0.65748191  0.04840058  1
  Br  Br196  1  0.95159942  0.40006666  0.34251809  1
  Br  Br197  1  0.95159942  0.59993334  0.65748191  1
  Br  Br198  1  0.04840058  0.59993334  0.34251809  1
  Br  Br199  1  0.04840058  0.40006666  0.65748191  1
  Br  Br200  1  0.34251809  0.95159942  0.40006666  1
  Br  Br201  1  0.65748191  0.95159942  0.59993334  1
  Br  Br202  1  0.34251809  0.04840058  0.59993334  1
  Br  Br203  1  0.65748191  0.04840058  0.40006666  1
  Br  Br204  1  0.34251809  0.40006666  0.04840058  1
  Br  Br205  1  0.65748191  0.59993334  0.04840058  1
  Br  Br206  1  0.34251809  0.59993334  0.95159942  1
  Br  Br207  1  0.65748191  0.40006666  0.95159942  1
  Br  Br208  1  0.40006666  0.95159942  0.65748191  1
  Br  Br209  1  0.59993334  0.95159942  0.34251809  1
  Br  Br210  1  0.59993334  0.04840058  0.65748191  1
  Br  Br211  1  0.40006666  0.04840058  0.34251809  1
  Br  Br212  1  0.95159942  0.34251809  0.59993334  1
  Br  Br213  1  0.95159942  0.65748191  0.40006666  1
  Br  Br214  1  0.04840058  0.34251809  0.40006666  1
  Br  Br215  1  0.04840058  0.65748191  0.59993334  1
  Br  Br216  1  0.59993334  0.65748191  0.04840058  1
  Br  Br217  1  0.40006666  0.34251809  0.04840058  1
  Br  Br218  1  0.40006666  0.65748191  0.95159942  1
  Br  Br219  1  0.59993334  0.34251809  0.95159942  1
  Br  Br220  1  0.04840058  0.59993334  0.65748191  1
  Br  Br221  1  0.04840058  0.40006666  0.34251809  1
  Br  Br222  1  0.95159942  0.40006666  0.65748191  1
  Br  Br223  1  0.95159942  0.59993334  0.34251809  1
  Br  Br224  1  0.65748191  0.04840058  0.59993334  1
  Br  Br225  1  0.34251809  0.04840058  0.40006666  1
  Br  Br226  1  0.65748191  0.95159942  0.40006666  1
  Br  Br227  1  0.34251809  0.95159942  0.59993334  1
  Br  Br228  1  0.65748191  0.59993334  0.95159942  1
  Br  Br229  1  0.34251809  0.40006666  0.95159942  1
  Br  Br230  1  0.65748191  0.40006666  0.04840058  1
  Br  Br231  1  0.34251809  0.59993334  0.04840058  1
  Br  Br232  1  0.59993334  0.04840058  0.34251809  1
  Br  Br233  1  0.40006666  0.04840058  0.65748191  1
  Br  Br234  1  0.40006666  0.95159942  0.34251809  1
  Br  Br235  1  0.59993334  0.95159942  0.65748191  1
  Br  Br236  1  0.04840058  0.65748191  0.40006666  1
  Br  Br237  1  0.04840058  0.34251809  0.59993334  1
  Br  Br238  1  0.95159942  0.65748191  0.59993334  1
  Br  Br239  1  0.95159942  0.34251809  0.40006666  1
  Br  Br240  1  0.40006666  0.84251809  0.45159942  1
  Br  Br241  1  0.59993334  0.15748191  0.45159942  1
  Br  Br242  1  0.59993334  0.84251809  0.54840058  1
  Br  Br243  1  0.40006666  0.15748191  0.54840058  1
  Br  Br244  1  0.95159942  0.90006666  0.84251809  1
  Br  Br245  1  0.95159942  0.09993334  0.15748191  1
  Br  Br246  1  0.04840058  0.09993334  0.84251809  1
  Br  Br247  1  0.04840058  0.90006666  0.15748191  1
  Br  Br248  1  0.34251809  0.45159942  0.90006666  1
  Br  Br249  1  0.65748191  0.45159942  0.09993334  1
  Br  Br250  1  0.34251809  0.54840058  0.09993334  1
  Br  Br251  1  0.65748191  0.54840058  0.90006666  1
  Br  Br252  1  0.34251809  0.90006666  0.54840058  1
  Br  Br253  1  0.65748191  0.09993334  0.54840058  1
  Br  Br254  1  0.34251809  0.09993334  0.45159942  1
  Br  Br255  1  0.65748191  0.90006666  0.45159942  1
  Br  Br256  1  0.40006666  0.45159942  0.15748191  1
  Br  Br257  1  0.59993334  0.45159942  0.84251809  1
  Br  Br258  1  0.59993334  0.54840058  0.15748191  1
  Br  Br259  1  0.40006666  0.54840058  0.84251809  1
  Br  Br260  1  0.95159942  0.84251809  0.09993334  1
  Br  Br261  1  0.95159942  0.15748191  0.90006666  1
  Br  Br262  1  0.04840058  0.84251809  0.90006666  1
  Br  Br263  1  0.04840058  0.15748191  0.09993334  1
  Br  Br264  1  0.59993334  0.15748191  0.54840058  1
  Br  Br265  1  0.40006666  0.84251809  0.54840058  1
  Br  Br266  1  0.40006666  0.15748191  0.45159942  1
  Br  Br267  1  0.59993334  0.84251809  0.45159942  1
  Br  Br268  1  0.04840058  0.09993334  0.15748191  1
  Br  Br269  1  0.04840058  0.90006666  0.84251809  1
  Br  Br270  1  0.95159942  0.90006666  0.15748191  1
  Br  Br271  1  0.95159942  0.09993334  0.84251809  1
  Br  Br272  1  0.65748191  0.54840058  0.09993334  1
  Br  Br273  1  0.34251809  0.54840058  0.90006666  1
  Br  Br274  1  0.65748191  0.45159942  0.90006666  1
  Br  Br275  1  0.34251809  0.45159942  0.09993334  1
  Br  Br276  1  0.65748191  0.09993334  0.45159942  1
  Br  Br277  1  0.34251809  0.90006666  0.45159942  1
  Br  Br278  1  0.65748191  0.90006666  0.54840058  1
  Br  Br279  1  0.34251809  0.09993334  0.54840058  1
  Br  Br280  1  0.59993334  0.54840058  0.84251809  1
  Br  Br281  1  0.40006666  0.54840058  0.15748191  1
  Br  Br282  1  0.40006666  0.45159942  0.84251809  1
  Br  Br283  1  0.59993334  0.45159942  0.15748191  1
  Br  Br284  1  0.04840058  0.15748191  0.90006666  1
  Br  Br285  1  0.04840058  0.84251809  0.09993334  1
  Br  Br286  1  0.95159942  0.15748191  0.09993334  1
  Br  Br287  1  0.95159942  0.84251809  0.90006666  1
  Br  Br288  1  0.90006666  0.34251809  0.45159942  1
  Br  Br289  1  0.09993334  0.65748191  0.45159942  1
  Br  Br290  1  0.09993334  0.34251809  0.54840058  1
  Br  Br291  1  0.90006666  0.65748191  0.54840058  1
  Br  Br292  1  0.45159942  0.40006666  0.84251809  1
  Br  Br293  1  0.45159942  0.59993334  0.15748191  1
  Br  Br294  1  0.54840058  0.59993334  0.84251809  1
  Br  Br295  1  0.54840058  0.40006666  0.15748191  1
  Br  Br296  1  0.84251809  0.95159942  0.90006666  1
  Br  Br297  1  0.15748191  0.95159942  0.09993334  1
  Br  Br298  1  0.84251809  0.04840058  0.09993334  1
  Br  Br299  1  0.15748191  0.04840058  0.90006666  1
  Br  Br300  1  0.84251809  0.40006666  0.54840058  1
  Br  Br301  1  0.15748191  0.59993334  0.54840058  1
  Br  Br302  1  0.84251809  0.59993334  0.45159942  1
  Br  Br303  1  0.15748191  0.40006666  0.45159942  1
  Br  Br304  1  0.90006666  0.95159942  0.15748191  1
  Br  Br305  1  0.09993334  0.95159942  0.84251809  1
  Br  Br306  1  0.09993334  0.04840058  0.15748191  1
  Br  Br307  1  0.90006666  0.04840058  0.84251809  1
  Br  Br308  1  0.45159942  0.34251809  0.09993334  1
  Br  Br309  1  0.45159942  0.65748191  0.90006666  1
  Br  Br310  1  0.54840058  0.34251809  0.90006666  1
  Br  Br311  1  0.54840058  0.65748191  0.09993334  1
  Br  Br312  1  0.09993334  0.65748191  0.54840058  1
  Br  Br313  1  0.90006666  0.34251809  0.54840058  1
  Br  Br314  1  0.90006666  0.65748191  0.45159942  1
  Br  Br315  1  0.09993334  0.34251809  0.45159942  1
  Br  Br316  1  0.54840058  0.59993334  0.15748191  1
  Br  Br317  1  0.54840058  0.40006666  0.84251809  1
  Br  Br318  1  0.45159942  0.40006666  0.15748191  1
  Br  Br319  1  0.45159942  0.59993334  0.84251809  1
  Br  Br320  1  0.15748191  0.04840058  0.09993334  1
  Br  Br321  1  0.84251809  0.04840058  0.90006666  1
  Br  Br322  1  0.15748191  0.95159942  0.90006666  1
  Br  Br323  1  0.84251809  0.95159942  0.09993334  1
  Br  Br324  1  0.15748191  0.59993334  0.45159942  1
  Br  Br325  1  0.84251809  0.40006666  0.45159942  1
  Br  Br326  1  0.15748191  0.40006666  0.54840058  1
  Br  Br327  1  0.84251809  0.59993334  0.54840058  1
  Br  Br328  1  0.09993334  0.04840058  0.84251809  1
  Br  Br329  1  0.90006666  0.04840058  0.15748191  1
  Br  Br330  1  0.90006666  0.95159942  0.84251809  1
  Br  Br331  1  0.09993334  0.95159942  0.15748191  1
  Br  Br332  1  0.54840058  0.65748191  0.90006666  1
  Br  Br333  1  0.54840058  0.34251809  0.09993334  1
  Br  Br334  1  0.45159942  0.65748191  0.09993334  1
  Br  Br335  1  0.45159942  0.34251809  0.90006666  1
  Br  Br336  1  0.90006666  0.84251809  0.95159942  1
  Br  Br337  1  0.09993334  0.15748191  0.95159942  1
  Br  Br338  1  0.09993334  0.84251809  0.04840058  1
  Br  Br339  1  0.90006666  0.15748191  0.04840058  1
  Br  Br340  1  0.45159942  0.90006666  0.34251809  1
  Br  Br341  1  0.45159942  0.09993334  0.65748191  1
  Br  Br342  1  0.54840058  0.09993334  0.34251809  1
  Br  Br343  1  0.54840058  0.90006666  0.65748191  1
  Br  Br344  1  0.84251809  0.45159942  0.40006666  1
  Br  Br345  1  0.15748191  0.45159942  0.59993334  1
  Br  Br346  1  0.84251809  0.54840058  0.59993334  1
  Br  Br347  1  0.15748191  0.54840058  0.40006666  1
  Br  Br348  1  0.84251809  0.90006666  0.04840058  1
  Br  Br349  1  0.15748191  0.09993334  0.04840058  1
  Br  Br350  1  0.84251809  0.09993334  0.95159942  1
  Br  Br351  1  0.15748191  0.90006666  0.95159942  1
  Br  Br352  1  0.90006666  0.45159942  0.65748191  1
  Br  Br353  1  0.09993334  0.45159942  0.34251809  1
  Br  Br354  1  0.09993334  0.54840058  0.65748191  1
  Br  Br355  1  0.90006666  0.54840058  0.34251809  1
  Br  Br356  1  0.45159942  0.84251809  0.59993334  1
  Br  Br357  1  0.45159942  0.15748191  0.40006666  1
  Br  Br358  1  0.54840058  0.84251809  0.40006666  1
  Br  Br359  1  0.54840058  0.15748191  0.59993334  1
  Br  Br360  1  0.09993334  0.15748191  0.04840058  1
  Br  Br361  1  0.90006666  0.84251809  0.04840058  1
  Br  Br362  1  0.90006666  0.15748191  0.95159942  1
  Br  Br363  1  0.09993334  0.84251809  0.95159942  1
  Br  Br364  1  0.54840058  0.09993334  0.65748191  1
  Br  Br365  1  0.54840058  0.90006666  0.34251809  1
  Br  Br366  1  0.45159942  0.90006666  0.65748191  1
  Br  Br367  1  0.45159942  0.09993334  0.34251809  1
  Br  Br368  1  0.15748191  0.54840058  0.59993334  1
  Br  Br369  1  0.84251809  0.54840058  0.40006666  1
  Br  Br370  1  0.15748191  0.45159942  0.40006666  1
  Br  Br371  1  0.84251809  0.45159942  0.59993334  1
  Br  Br372  1  0.15748191  0.09993334  0.95159942  1
  Br  Br373  1  0.84251809  0.90006666  0.95159942  1
  Br  Br374  1  0.15748191  0.90006666  0.04840058  1
  Br  Br375  1  0.84251809  0.09993334  0.04840058  1
  Br  Br376  1  0.09993334  0.54840058  0.34251809  1
  Br  Br377  1  0.90006666  0.54840058  0.65748191  1
  Br  Br378  1  0.90006666  0.45159942  0.34251809  1
  Br  Br379  1  0.09993334  0.45159942  0.65748191  1
  Br  Br380  1  0.54840058  0.15748191  0.40006666  1
  Br  Br381  1  0.54840058  0.84251809  0.59993334  1
  Br  Br382  1  0.45159942  0.15748191  0.59993334  1
  Br  Br383  1  0.45159942  0.84251809  0.40006666  1
  Cl  Cl384  1  0.00000000  0.00000000  0.00000000  1
  Cl  Cl385  1  0.00000000  0.50000000  0.50000000  1
  Cl  Cl386  1  0.50000000  0.00000000  0.50000000  1
  Cl  Cl387  1  0.50000000  0.50000000  0.00000000  1
  Cl  Cl388  1  0.00000000  0.17766334  0.17766334  1
  Cl  Cl389  1  0.00000000  0.82233666  0.17766334  1
  Cl  Cl390  1  0.00000000  0.17766334  0.82233666  1
  Cl  Cl391  1  0.00000000  0.82233666  0.82233666  1
  Cl  Cl392  1  0.17766334  0.00000000  0.17766334  1
  Cl  Cl393  1  0.17766334  0.00000000  0.82233666  1
  Cl  Cl394  1  0.82233666  0.00000000  0.17766334  1
  Cl  Cl395  1  0.82233666  0.00000000  0.82233666  1
  Cl  Cl396  1  0.17766334  0.17766334  0.00000000  1
  Cl  Cl397  1  0.82233666  0.17766334  0.00000000  1
  Cl  Cl398  1  0.17766334  0.82233666  0.00000000  1
  Cl  Cl399  1  0.82233666  0.82233666  0.00000000  1
  Cl  Cl400  1  0.00000000  0.67766334  0.67766334  1
  Cl  Cl401  1  0.00000000  0.32233666  0.67766334  1
  Cl  Cl402  1  0.00000000  0.67766334  0.32233666  1
  Cl  Cl403  1  0.00000000  0.32233666  0.32233666  1
  Cl  Cl404  1  0.17766334  0.50000000  0.67766334  1
  Cl  Cl405  1  0.17766334  0.50000000  0.32233666  1
  Cl  Cl406  1  0.82233666  0.50000000  0.67766334  1
  Cl  Cl407  1  0.82233666  0.50000000  0.32233666  1
  Cl  Cl408  1  0.17766334  0.67766334  0.50000000  1
  Cl  Cl409  1  0.82233666  0.67766334  0.50000000  1
  Cl  Cl410  1  0.17766334  0.32233666  0.50000000  1
  Cl  Cl411  1  0.82233666  0.32233666  0.50000000  1
  Cl  Cl412  1  0.50000000  0.17766334  0.67766334  1
  Cl  Cl413  1  0.50000000  0.82233666  0.67766334  1
  Cl  Cl414  1  0.50000000  0.17766334  0.32233666  1
  Cl  Cl415  1  0.50000000  0.82233666  0.32233666  1
  Cl  Cl416  1  0.67766334  0.00000000  0.67766334  1
  Cl  Cl417  1  0.67766334  0.00000000  0.32233666  1
  Cl  Cl418  1  0.32233666  0.00000000  0.67766334  1
  Cl  Cl419  1  0.32233666  0.00000000  0.32233666  1
  Cl  Cl420  1  0.67766334  0.17766334  0.50000000  1
  Cl  Cl421  1  0.32233666  0.17766334  0.50000000  1
  Cl  Cl422  1  0.67766334  0.82233666  0.50000000  1
  Cl  Cl423  1  0.32233666  0.82233666  0.50000000  1
  Cl  Cl424  1  0.50000000  0.67766334  0.17766334  1
  Cl  Cl425  1  0.50000000  0.32233666  0.17766334  1
  Cl  Cl426  1  0.50000000  0.67766334  0.82233666  1
  Cl  Cl427  1  0.50000000  0.32233666  0.82233666  1
  Cl  Cl428  1  0.67766334  0.50000000  0.17766334  1
  Cl  Cl429  1  0.67766334  0.50000000  0.82233666  1
  Cl  Cl430  1  0.32233666  0.50000000  0.17766334  1
  Cl  Cl431  1  0.32233666  0.50000000  0.82233666  1
  Cl  Cl432  1  0.67766334  0.67766334  0.00000000  1
  Cl  Cl433  1  0.32233666  0.67766334  0.00000000  1
  Cl  Cl434  1  0.67766334  0.32233666  0.00000000  1
  Cl  Cl435  1  0.32233666  0.32233666  0.00000000  1
  Cl  Cl436  1  0.16812270  0.25000000  0.25000000  1
  Cl  Cl437  1  0.83187730  0.75000000  0.25000000  1
  Cl  Cl438  1  0.25000000  0.16812270  0.25000000  1
  Cl  Cl439  1  0.25000000  0.83187730  0.75000000  1
  Cl  Cl440  1  0.25000000  0.25000000  0.16812270  1
  Cl  Cl441  1  0.75000000  0.25000000  0.83187730  1
  Cl  Cl442  1  0.25000000  0.16812270  0.75000000  1
  Cl  Cl443  1  0.75000000  0.83187730  0.75000000  1
  Cl  Cl444  1  0.16812270  0.25000000  0.75000000  1
  Cl  Cl445  1  0.83187730  0.25000000  0.25000000  1
  Cl  Cl446  1  0.25000000  0.25000000  0.83187730  1
  Cl  Cl447  1  0.25000000  0.75000000  0.16812270  1
  Cl  Cl448  1  0.16812270  0.75000000  0.75000000  1
  Cl  Cl449  1  0.83187730  0.25000000  0.75000000  1
  Cl  Cl450  1  0.25000000  0.66812270  0.75000000  1
  Cl  Cl451  1  0.25000000  0.33187730  0.25000000  1
  Cl  Cl452  1  0.25000000  0.75000000  0.66812270  1
  Cl  Cl453  1  0.75000000  0.75000000  0.33187730  1
  Cl  Cl454  1  0.25000000  0.66812270  0.25000000  1
  Cl  Cl455  1  0.75000000  0.33187730  0.25000000  1
  Cl  Cl456  1  0.16812270  0.75000000  0.25000000  1
  Cl  Cl457  1  0.83187730  0.75000000  0.75000000  1
  Cl  Cl458  1  0.25000000  0.75000000  0.33187730  1
  Cl  Cl459  1  0.25000000  0.25000000  0.66812270  1
  Cl  Cl460  1  0.66812270  0.25000000  0.75000000  1
  Cl  Cl461  1  0.33187730  0.75000000  0.75000000  1
  Cl  Cl462  1  0.75000000  0.16812270  0.75000000  1
  Cl  Cl463  1  0.75000000  0.83187730  0.25000000  1
  Cl  Cl464  1  0.75000000  0.25000000  0.66812270  1
  Cl  Cl465  1  0.25000000  0.25000000  0.33187730  1
  Cl  Cl466  1  0.75000000  0.16812270  0.25000000  1
  Cl  Cl467  1  0.25000000  0.83187730  0.25000000  1
  Cl  Cl468  1  0.66812270  0.25000000  0.25000000  1
  Cl  Cl469  1  0.33187730  0.25000000  0.75000000  1
  Cl  Cl470  1  0.75000000  0.25000000  0.33187730  1
  Cl  Cl471  1  0.75000000  0.75000000  0.66812270  1
  Cl  Cl472  1  0.66812270  0.75000000  0.25000000  1
  Cl  Cl473  1  0.33187730  0.25000000  0.25000000  1
  Cl  Cl474  1  0.75000000  0.66812270  0.25000000  1
  Cl  Cl475  1  0.75000000  0.33187730  0.75000000  1
  Cl  Cl476  1  0.75000000  0.75000000  0.16812270  1
  Cl  Cl477  1  0.25000000  0.75000000  0.83187730  1
  Cl  Cl478  1  0.75000000  0.66812270  0.75000000  1
  Cl  Cl479  1  0.25000000  0.33187730  0.75000000  1
  Cl  Cl480  1  0.66812270  0.75000000  0.75000000  1
  Cl  Cl481  1  0.33187730  0.75000000  0.25000000  1
  Cl  Cl482  1  0.75000000  0.75000000  0.83187730  1
  Cl  Cl483  1  0.75000000  0.25000000  0.16812270  1
  Cl  Cl484  1  0.00000000  0.35483119  0.35483119  1
  Cl  Cl485  1  0.00000000  0.64516881  0.35483119  1
  Cl  Cl486  1  0.00000000  0.35483119  0.64516881  1
  Cl  Cl487  1  0.00000000  0.64516881  0.64516881  1
  Cl  Cl488  1  0.35483119  0.00000000  0.35483119  1
  Cl  Cl489  1  0.35483119  0.00000000  0.64516881  1
  Cl  Cl490  1  0.64516881  0.00000000  0.35483119  1
  Cl  Cl491  1  0.64516881  0.00000000  0.64516881  1
  Cl  Cl492  1  0.35483119  0.35483119  0.00000000  1
  Cl  Cl493  1  0.64516881  0.35483119  0.00000000  1
  Cl  Cl494  1  0.35483119  0.64516881  0.00000000  1
  Cl  Cl495  1  0.64516881  0.64516881  0.00000000  1
  Cl  Cl496  1  0.00000000  0.85483119  0.85483119  1
  Cl  Cl497  1  0.00000000  0.14516881  0.85483119  1
  Cl  Cl498  1  0.00000000  0.85483119  0.14516881  1
  Cl  Cl499  1  0.00000000  0.14516881  0.14516881  1
  Cl  Cl500  1  0.35483119  0.50000000  0.85483119  1
  Cl  Cl501  1  0.35483119  0.50000000  0.14516881  1
  Cl  Cl502  1  0.64516881  0.50000000  0.85483119  1
  Cl  Cl503  1  0.64516881  0.50000000  0.14516881  1
  Cl  Cl504  1  0.35483119  0.85483119  0.50000000  1
  Cl  Cl505  1  0.64516881  0.85483119  0.50000000  1
  Cl  Cl506  1  0.35483119  0.14516881  0.50000000  1
  Cl  Cl507  1  0.64516881  0.14516881  0.50000000  1
  Cl  Cl508  1  0.50000000  0.35483119  0.85483119  1
  Cl  Cl509  1  0.50000000  0.64516881  0.85483119  1
  Cl  Cl510  1  0.50000000  0.35483119  0.14516881  1
  Cl  Cl511  1  0.50000000  0.64516881  0.14516881  1
  Cl  Cl512  1  0.85483119  0.00000000  0.85483119  1
  Cl  Cl513  1  0.85483119  0.00000000  0.14516881  1
  Cl  Cl514  1  0.14516881  0.00000000  0.85483119  1
  Cl  Cl515  1  0.14516881  0.00000000  0.14516881  1
  Cl  Cl516  1  0.85483119  0.35483119  0.50000000  1
  Cl  Cl517  1  0.14516881  0.35483119  0.50000000  1
  Cl  Cl518  1  0.85483119  0.64516881  0.50000000  1
  Cl  Cl519  1  0.14516881  0.64516881  0.50000000  1
  Cl  Cl520  1  0.50000000  0.85483119  0.35483119  1
  Cl  Cl521  1  0.50000000  0.14516881  0.35483119  1
  Cl  Cl522  1  0.50000000  0.85483119  0.64516881  1
  Cl  Cl523  1  0.50000000  0.14516881  0.64516881  1
  Cl  Cl524  1  0.85483119  0.50000000  0.35483119  1
  Cl  Cl525  1  0.85483119  0.50000000  0.64516881  1
  Cl  Cl526  1  0.14516881  0.50000000  0.35483119  1
  Cl  Cl527  1  0.14516881  0.50000000  0.64516881  1
  Cl  Cl528  1  0.85483119  0.85483119  0.00000000  1
  Cl  Cl529  1  0.14516881  0.85483119  0.00000000  1
  Cl  Cl530  1  0.85483119  0.14516881  0.00000000  1
  Cl  Cl531  1  0.14516881  0.14516881  0.00000000  1
  Cl  Cl532  1  0.25000000  0.25000000  0.25000000  1
  Cl  Cl533  1  0.25000000  0.25000000  0.75000000  1
  Cl  Cl534  1  0.25000000  0.75000000  0.75000000  1
  Cl  Cl535  1  0.25000000  0.75000000  0.25000000  1
  Cl  Cl536  1  0.75000000  0.25000000  0.75000000  1
  Cl  Cl537  1  0.75000000  0.25000000  0.25000000  1
  Cl  Cl538  1  0.75000000  0.75000000  0.25000000  1
  Cl  Cl539  1  0.75000000  0.75000000  0.75000000  1
  Cl  Cl540  1  0.36257157  0.36257157  0.36257157  1
  Cl  Cl541  1  0.63742843  0.63742843  0.36257157  1
  Cl  Cl542  1  0.63742843  0.36257157  0.63742843  1
  Cl  Cl543  1  0.36257157  0.63742843  0.63742843  1
  Cl  Cl544  1  0.36257157  0.36257157  0.63742843  1
  Cl  Cl545  1  0.63742843  0.63742843  0.63742843  1
  Cl  Cl546  1  0.36257157  0.63742843  0.36257157  1
  Cl  Cl547  1  0.63742843  0.36257157  0.36257157  1
  Cl  Cl548  1  0.36257157  0.86257157  0.86257157  1
  Cl  Cl549  1  0.63742843  0.13742843  0.86257157  1
  Cl  Cl550  1  0.63742843  0.86257157  0.13742843  1
  Cl  Cl551  1  0.36257157  0.13742843  0.13742843  1
  Cl  Cl552  1  0.36257157  0.86257157  0.13742843  1
  Cl  Cl553  1  0.63742843  0.13742843  0.13742843  1
  Cl  Cl554  1  0.36257157  0.13742843  0.86257157  1
  Cl  Cl555  1  0.63742843  0.86257157  0.86257157  1
  Cl  Cl556  1  0.86257157  0.36257157  0.86257157  1
  Cl  Cl557  1  0.13742843  0.63742843  0.86257157  1
  Cl  Cl558  1  0.13742843  0.36257157  0.13742843  1
  Cl  Cl559  1  0.86257157  0.63742843  0.13742843  1
  Cl  Cl560  1  0.86257157  0.36257157  0.13742843  1
  Cl  Cl561  1  0.13742843  0.63742843  0.13742843  1
  Cl  Cl562  1  0.86257157  0.63742843  0.86257157  1
  Cl  Cl563  1  0.13742843  0.36257157  0.86257157  1
  Cl  Cl564  1  0.86257157  0.86257157  0.36257157  1
  Cl  Cl565  1  0.13742843  0.13742843  0.36257157  1
  Cl  Cl566  1  0.13742843  0.86257157  0.63742843  1
  Cl  Cl567  1  0.86257157  0.13742843  0.63742843  1
  Cl  Cl568  1  0.86257157  0.86257157  0.63742843  1
  Cl  Cl569  1  0.13742843  0.13742843  0.63742843  1
  Cl  Cl570  1  0.86257157  0.13742843  0.36257157  1
  Cl  Cl571  1  0.13742843  0.86257157  0.36257157  1
  Cl  Cl572  1  0.50000000  0.50000000  0.50000000  1
  Cl  Cl573  1  0.50000000  0.00000000  0.00000000  1
  Cl  Cl574  1  0.00000000  0.50000000  0.00000000  1
  Cl  Cl575  1  0.00000000  0.00000000  0.50000000  1
  Li  Li576  1  0.82646157  0.82646157  0.71767307  1
  Li  Li577  1  0.17353843  0.17353843  0.71767307  1
  Li  Li578  1  0.17353843  0.82646157  0.28232693  1
  Li  Li579  1  0.82646157  0.17353843  0.28232693  1
  Li  Li580  1  0.71767307  0.82646157  0.82646157  1
  Li  Li581  1  0.71767307  0.17353843  0.17353843  1
  Li  Li582  1  0.28232693  0.17353843  0.82646157  1
  Li  Li583  1  0.28232693  0.82646157  0.17353843  1
  Li  Li584  1  0.82646157  0.71767307  0.82646157  1
  Li  Li585  1  0.17353843  0.71767307  0.17353843  1
  Li  Li586  1  0.82646157  0.28232693  0.17353843  1
  Li  Li587  1  0.17353843  0.28232693  0.82646157  1
  Li  Li588  1  0.82646157  0.82646157  0.28232693  1
  Li  Li589  1  0.17353843  0.17353843  0.28232693  1
  Li  Li590  1  0.82646157  0.17353843  0.71767307  1
  Li  Li591  1  0.17353843  0.82646157  0.71767307  1
  Li  Li592  1  0.82646157  0.71767307  0.17353843  1
  Li  Li593  1  0.17353843  0.71767307  0.82646157  1
  Li  Li594  1  0.17353843  0.28232693  0.17353843  1
  Li  Li595  1  0.82646157  0.28232693  0.82646157  1
  Li  Li596  1  0.71767307  0.82646157  0.17353843  1
  Li  Li597  1  0.71767307  0.17353843  0.82646157  1
  Li  Li598  1  0.28232693  0.82646157  0.82646157  1
  Li  Li599  1  0.28232693  0.17353843  0.17353843  1
  Li  Li600  1  0.82646157  0.32646157  0.21767307  1
  Li  Li601  1  0.17353843  0.67353843  0.21767307  1
  Li  Li602  1  0.17353843  0.32646157  0.78232693  1
  Li  Li603  1  0.82646157  0.67353843  0.78232693  1
  Li  Li604  1  0.71767307  0.32646157  0.32646157  1
  Li  Li605  1  0.71767307  0.67353843  0.67353843  1
  Li  Li606  1  0.28232693  0.67353843  0.32646157  1
  Li  Li607  1  0.28232693  0.32646157  0.67353843  1
  Li  Li608  1  0.82646157  0.21767307  0.32646157  1
  Li  Li609  1  0.17353843  0.21767307  0.67353843  1
  Li  Li610  1  0.82646157  0.78232693  0.67353843  1
  Li  Li611  1  0.17353843  0.78232693  0.32646157  1
  Li  Li612  1  0.82646157  0.32646157  0.78232693  1
  Li  Li613  1  0.17353843  0.67353843  0.78232693  1
  Li  Li614  1  0.82646157  0.67353843  0.21767307  1
  Li  Li615  1  0.17353843  0.32646157  0.21767307  1
  Li  Li616  1  0.82646157  0.21767307  0.67353843  1
  Li  Li617  1  0.17353843  0.21767307  0.32646157  1
  Li  Li618  1  0.17353843  0.78232693  0.67353843  1
  Li  Li619  1  0.82646157  0.78232693  0.32646157  1
  Li  Li620  1  0.71767307  0.32646157  0.67353843  1
  Li  Li621  1  0.71767307  0.67353843  0.32646157  1
  Li  Li622  1  0.28232693  0.32646157  0.32646157  1
  Li  Li623  1  0.28232693  0.67353843  0.67353843  1
  Li  Li624  1  0.32646157  0.82646157  0.21767307  1
  Li  Li625  1  0.67353843  0.17353843  0.21767307  1
  Li  Li626  1  0.67353843  0.82646157  0.78232693  1
  Li  Li627  1  0.32646157  0.17353843  0.78232693  1
  Li  Li628  1  0.21767307  0.82646157  0.32646157  1
  Li  Li629  1  0.21767307  0.17353843  0.67353843  1
  Li  Li630  1  0.78232693  0.17353843  0.32646157  1
  Li  Li631  1  0.78232693  0.82646157  0.67353843  1
  Li  Li632  1  0.32646157  0.71767307  0.32646157  1
  Li  Li633  1  0.67353843  0.71767307  0.67353843  1
  Li  Li634  1  0.32646157  0.28232693  0.67353843  1
  Li  Li635  1  0.67353843  0.28232693  0.32646157  1
  Li  Li636  1  0.32646157  0.82646157  0.78232693  1
  Li  Li637  1  0.67353843  0.17353843  0.78232693  1
  Li  Li638  1  0.32646157  0.17353843  0.21767307  1
  Li  Li639  1  0.67353843  0.82646157  0.21767307  1
  Li  Li640  1  0.32646157  0.71767307  0.67353843  1
  Li  Li641  1  0.67353843  0.71767307  0.32646157  1
  Li  Li642  1  0.67353843  0.28232693  0.67353843  1
  Li  Li643  1  0.32646157  0.28232693  0.32646157  1
  Li  Li644  1  0.21767307  0.82646157  0.67353843  1
  Li  Li645  1  0.21767307  0.17353843  0.32646157  1
  Li  Li646  1  0.78232693  0.82646157  0.32646157  1
  Li  Li647  1  0.78232693  0.17353843  0.67353843  1
  Li  Li648  1  0.32646157  0.32646157  0.71767307  1
  Li  Li649  1  0.67353843  0.67353843  0.71767307  1
  Li  Li650  1  0.67353843  0.32646157  0.28232693  1
  Li  Li651  1  0.32646157  0.67353843  0.28232693  1
  Li  Li652  1  0.21767307  0.32646157  0.82646157  1
  Li  Li653  1  0.21767307  0.67353843  0.17353843  1
  Li  Li654  1  0.78232693  0.67353843  0.82646157  1
  Li  Li655  1  0.78232693  0.32646157  0.17353843  1
  Li  Li656  1  0.32646157  0.21767307  0.82646157  1
  Li  Li657  1  0.67353843  0.21767307  0.17353843  1
  Li  Li658  1  0.32646157  0.78232693  0.17353843  1
  Li  Li659  1  0.67353843  0.78232693  0.82646157  1
  Li  Li660  1  0.32646157  0.32646157  0.28232693  1
  Li  Li661  1  0.67353843  0.67353843  0.28232693  1
  Li  Li662  1  0.32646157  0.67353843  0.71767307  1
  Li  Li663  1  0.67353843  0.32646157  0.71767307  1
  Li  Li664  1  0.32646157  0.21767307  0.17353843  1
  Li  Li665  1  0.67353843  0.21767307  0.82646157  1
  Li  Li666  1  0.67353843  0.78232693  0.17353843  1
  Li  Li667  1  0.32646157  0.78232693  0.82646157  1
  Li  Li668  1  0.21767307  0.32646157  0.17353843  1
  Li  Li669  1  0.21767307  0.67353843  0.82646157  1
  Li  Li670  1  0.78232693  0.32646157  0.82646157  1
  Li  Li671  1  0.78232693  0.67353843  0.17353843  1
  Li  Li672  1  0.00000000  0.42094307  0.42094307  1
  Li  Li673  1  0.00000000  0.57905693  0.42094307  1
  Li  Li674  1  0.00000000  0.42094307  0.57905693  1
  Li  Li675  1  0.00000000  0.57905693  0.57905693  1
  Li  Li676  1  0.42094307  0.00000000  0.42094307  1
  Li  Li677  1  0.42094307  0.00000000  0.57905693  1
  Li  Li678  1  0.57905693  0.00000000  0.42094307  1
  Li  Li679  1  0.57905693  0.00000000  0.57905693  1
  Li  Li680  1  0.42094307  0.42094307  0.00000000  1
  Li  Li681  1  0.57905693  0.42094307  0.00000000  1
  Li  Li682  1  0.42094307  0.57905693  0.00000000  1
  Li  Li683  1  0.57905693  0.57905693  0.00000000  1
  Li  Li684  1  0.00000000  0.92094307  0.92094307  1
  Li  Li685  1  0.00000000  0.07905693  0.92094307  1
  Li  Li686  1  0.00000000  0.92094307  0.07905693  1
  Li  Li687  1  0.00000000  0.07905693  0.07905693  1
  Li  Li688  1  0.42094307  0.50000000  0.92094307  1
  Li  Li689  1  0.42094307  0.50000000  0.07905693  1
  Li  Li690  1  0.57905693  0.50000000  0.92094307  1
  Li  Li691  1  0.57905693  0.50000000  0.07905693  1
  Li  Li692  1  0.42094307  0.92094307  0.50000000  1
  Li  Li693  1  0.57905693  0.92094307  0.50000000  1
  Li  Li694  1  0.42094307  0.07905693  0.50000000  1
  Li  Li695  1  0.57905693  0.07905693  0.50000000  1
  Li  Li696  1  0.50000000  0.42094307  0.92094307  1
  Li  Li697  1  0.50000000  0.57905693  0.92094307  1
  Li  Li698  1  0.50000000  0.42094307  0.07905693  1
  Li  Li699  1  0.50000000  0.57905693  0.07905693  1
  Li  Li700  1  0.92094307  0.00000000  0.92094307  1
  Li  Li701  1  0.92094307  0.00000000  0.07905693  1
  Li  Li702  1  0.07905693  0.00000000  0.92094307  1
  Li  Li703  1  0.07905693  0.00000000  0.07905693  1
  Li  Li704  1  0.92094307  0.42094307  0.50000000  1
  Li  Li705  1  0.07905693  0.42094307  0.50000000  1
  Li  Li706  1  0.92094307  0.57905693  0.50000000  1
  Li  Li707  1  0.07905693  0.57905693  0.50000000  1
  Li  Li708  1  0.50000000  0.92094307  0.42094307  1
  Li  Li709  1  0.50000000  0.07905693  0.42094307  1
  Li  Li710  1  0.50000000  0.92094307  0.57905693  1
  Li  Li711  1  0.50000000  0.07905693  0.57905693  1
  Li  Li712  1  0.92094307  0.50000000  0.42094307  1
  Li  Li713  1  0.92094307  0.50000000  0.57905693  1
  Li  Li714  1  0.07905693  0.50000000  0.42094307  1
  Li  Li715  1  0.07905693  0.50000000  0.57905693  1
  Li  Li716  1  0.92094307  0.92094307  0.00000000  1
  Li  Li717  1  0.07905693  0.92094307  0.00000000  1
  Li  Li718  1  0.92094307  0.07905693  0.00000000  1
  Li  Li719  1  0.07905693  0.07905693  0.00000000  1
  Li  Li720  1  0.39461326  0.25000000  0.25000000  1
  Li  Li721  1  0.60538674  0.75000000  0.25000000  1
  Li  Li722  1  0.25000000  0.39461326  0.25000000  1
  Li  Li723  1  0.25000000  0.60538674  0.75000000  1
  Li  Li724  1  0.25000000  0.25000000  0.39461326  1
  Li  Li725  1  0.75000000  0.25000000  0.60538674  1
  Li  Li726  1  0.25000000  0.39461326  0.75000000  1
  Li  Li727  1  0.75000000  0.60538674  0.75000000  1
  Li  Li728  1  0.39461326  0.25000000  0.75000000  1
  Li  Li729  1  0.60538674  0.25000000  0.25000000  1
  Li  Li730  1  0.25000000  0.25000000  0.60538674  1
  Li  Li731  1  0.25000000  0.75000000  0.39461326  1
  Li  Li732  1  0.39461326  0.75000000  0.75000000  1
  Li  Li733  1  0.60538674  0.25000000  0.75000000  1
  Li  Li734  1  0.25000000  0.89461326  0.75000000  1
  Li  Li735  1  0.25000000  0.10538674  0.25000000  1
  Li  Li736  1  0.25000000  0.75000000  0.89461326  1
  Li  Li737  1  0.75000000  0.75000000  0.10538674  1
  Li  Li738  1  0.25000000  0.89461326  0.25000000  1
  Li  Li739  1  0.75000000  0.10538674  0.25000000  1
  Li  Li740  1  0.39461326  0.75000000  0.25000000  1
  Li  Li741  1  0.60538674  0.75000000  0.75000000  1
  Li  Li742  1  0.25000000  0.75000000  0.10538674  1
  Li  Li743  1  0.25000000  0.25000000  0.89461326  1
  Li  Li744  1  0.89461326  0.25000000  0.75000000  1
  Li  Li745  1  0.10538674  0.75000000  0.75000000  1
  Li  Li746  1  0.75000000  0.39461326  0.75000000  1
  Li  Li747  1  0.75000000  0.60538674  0.25000000  1
  Li  Li748  1  0.75000000  0.25000000  0.89461326  1
  Li  Li749  1  0.25000000  0.25000000  0.10538674  1
  Li  Li750  1  0.75000000  0.39461326  0.25000000  1
  Li  Li751  1  0.25000000  0.60538674  0.25000000  1
  Li  Li752  1  0.89461326  0.25000000  0.25000000  1
  Li  Li753  1  0.10538674  0.25000000  0.75000000  1
  Li  Li754  1  0.75000000  0.25000000  0.10538674  1
  Li  Li755  1  0.75000000  0.75000000  0.89461326  1
  Li  Li756  1  0.89461326  0.75000000  0.25000000  1
  Li  Li757  1  0.10538674  0.25000000  0.25000000  1
  Li  Li758  1  0.75000000  0.89461326  0.25000000  1
  Li  Li759  1  0.75000000  0.10538674  0.75000000  1
  Li  Li760  1  0.75000000  0.75000000  0.39461326  1
  Li  Li761  1  0.25000000  0.75000000  0.60538674  1
  Li  Li762  1  0.75000000  0.89461326  0.75000000  1
  Li  Li763  1  0.25000000  0.10538674  0.75000000  1
  Li  Li764  1  0.89461326  0.75000000  0.75000000  1
  Li  Li765  1  0.10538674  0.75000000  0.25000000  1
  Li  Li766  1  0.75000000  0.75000000  0.60538674  1
  Li  Li767  1  0.75000000  0.25000000  0.39461326  1
  Zr  Zr768  1  0.00000000  0.08427237  0.79323218  1
  Zr  Zr769  1  0.00000000  0.91572763  0.79323218  1
  Zr  Zr770  1  0.00000000  0.08427237  0.20676782  1
  Zr  Zr771  1  0.00000000  0.91572763  0.20676782  1
  Zr  Zr772  1  0.79323218  0.00000000  0.08427237  1
  Zr  Zr773  1  0.79323218  0.00000000  0.91572763  1
  Zr  Zr774  1  0.20676782  0.00000000  0.08427237  1
  Zr  Zr775  1  0.20676782  0.00000000  0.91572763  1
  Zr  Zr776  1  0.08427237  0.79323218  0.00000000  1
  Zr  Zr777  1  0.91572763  0.79323218  0.00000000  1
  Zr  Zr778  1  0.08427237  0.20676782  0.00000000  1
  Zr  Zr779  1  0.91572763  0.20676782  0.00000000  1
  Zr  Zr780  1  0.08427237  0.00000000  0.20676782  1
  Zr  Zr781  1  0.91572763  0.00000000  0.20676782  1
  Zr  Zr782  1  0.08427237  0.00000000  0.79323218  1
  Zr  Zr783  1  0.91572763  0.00000000  0.79323218  1
  Zr  Zr784  1  0.00000000  0.79323218  0.91572763  1
  Zr  Zr785  1  0.00000000  0.79323218  0.08427237  1
  Zr  Zr786  1  0.00000000  0.20676782  0.91572763  1
  Zr  Zr787  1  0.00000000  0.20676782  0.08427237  1
  Zr  Zr788  1  0.79323218  0.08427237  0.00000000  1
  Zr  Zr789  1  0.79323218  0.91572763  0.00000000  1
  Zr  Zr790  1  0.20676782  0.08427237  0.00000000  1
  Zr  Zr791  1  0.20676782  0.91572763  0.00000000  1
  Zr  Zr792  1  0.00000000  0.58427237  0.29323218  1
  Zr  Zr793  1  0.00000000  0.41572763  0.29323218  1
  Zr  Zr794  1  0.00000000  0.58427237  0.70676782  1
  Zr  Zr795  1  0.00000000  0.41572763  0.70676782  1
  Zr  Zr796  1  0.79323218  0.50000000  0.58427237  1
  Zr  Zr797  1  0.79323218  0.50000000  0.41572763  1
  Zr  Zr798  1  0.20676782  0.50000000  0.58427237  1
  Zr  Zr799  1  0.20676782  0.50000000  0.41572763  1
  Zr  Zr800  1  0.08427237  0.29323218  0.50000000  1
  Zr  Zr801  1  0.91572763  0.29323218  0.50000000  1
  Zr  Zr802  1  0.08427237  0.70676782  0.50000000  1
  Zr  Zr803  1  0.91572763  0.70676782  0.50000000  1
  Zr  Zr804  1  0.08427237  0.50000000  0.70676782  1
  Zr  Zr805  1  0.91572763  0.50000000  0.70676782  1
  Zr  Zr806  1  0.08427237  0.50000000  0.29323218  1
  Zr  Zr807  1  0.91572763  0.50000000  0.29323218  1
  Zr  Zr808  1  0.00000000  0.29323218  0.41572763  1
  Zr  Zr809  1  0.00000000  0.29323218  0.58427237  1
  Zr  Zr810  1  0.00000000  0.70676782  0.41572763  1
  Zr  Zr811  1  0.00000000  0.70676782  0.58427237  1
  Zr  Zr812  1  0.79323218  0.58427237  0.50000000  1
  Zr  Zr813  1  0.79323218  0.41572763  0.50000000  1
  Zr  Zr814  1  0.20676782  0.58427237  0.50000000  1
  Zr  Zr815  1  0.20676782  0.41572763  0.50000000  1
  Zr  Zr816  1  0.50000000  0.08427237  0.29323218  1
  Zr  Zr817  1  0.50000000  0.91572763  0.29323218  1
  Zr  Zr818  1  0.50000000  0.08427237  0.70676782  1
  Zr  Zr819  1  0.50000000  0.91572763  0.70676782  1
  Zr  Zr820  1  0.29323218  0.00000000  0.58427237  1
  Zr  Zr821  1  0.29323218  0.00000000  0.41572763  1
  Zr  Zr822  1  0.70676782  0.00000000  0.58427237  1
  Zr  Zr823  1  0.70676782  0.00000000  0.41572763  1
  Zr  Zr824  1  0.58427237  0.79323218  0.50000000  1
  Zr  Zr825  1  0.41572763  0.79323218  0.50000000  1
  Zr  Zr826  1  0.58427237  0.20676782  0.50000000  1
  Zr  Zr827  1  0.41572763  0.20676782  0.50000000  1
  Zr  Zr828  1  0.58427237  0.00000000  0.70676782  1
  Zr  Zr829  1  0.41572763  0.00000000  0.70676782  1
  Zr  Zr830  1  0.58427237  0.00000000  0.29323218  1
  Zr  Zr831  1  0.41572763  0.00000000  0.29323218  1
  Zr  Zr832  1  0.50000000  0.79323218  0.41572763  1
  Zr  Zr833  1  0.50000000  0.79323218  0.58427237  1
  Zr  Zr834  1  0.50000000  0.20676782  0.41572763  1
  Zr  Zr835  1  0.50000000  0.20676782  0.58427237  1
  Zr  Zr836  1  0.29323218  0.08427237  0.50000000  1
  Zr  Zr837  1  0.29323218  0.91572763  0.50000000  1
  Zr  Zr838  1  0.70676782  0.08427237  0.50000000  1
  Zr  Zr839  1  0.70676782  0.91572763  0.50000000  1
  Zr  Zr840  1  0.50000000  0.58427237  0.79323218  1
  Zr  Zr841  1  0.50000000  0.41572763  0.79323218  1
  Zr  Zr842  1  0.50000000  0.58427237  0.20676782  1
  Zr  Zr843  1  0.50000000  0.41572763  0.20676782  1
  Zr  Zr844  1  0.29323218  0.50000000  0.08427237  1
  Zr  Zr845  1  0.29323218  0.50000000  0.91572763  1
  Zr  Zr846  1  0.70676782  0.50000000  0.08427237  1
  Zr  Zr847  1  0.70676782  0.50000000  0.91572763  1
  Zr  Zr848  1  0.58427237  0.29323218  0.00000000  1
  Zr  Zr849  1  0.41572763  0.29323218  0.00000000  1
  Zr  Zr850  1  0.58427237  0.70676782  0.00000000  1
  Zr  Zr851  1  0.41572763  0.70676782  0.00000000  1
  Zr  Zr852  1  0.58427237  0.50000000  0.20676782  1
  Zr  Zr853  1  0.41572763  0.50000000  0.20676782  1
  Zr  Zr854  1  0.58427237  0.50000000  0.79323218  1
  Zr  Zr855  1  0.41572763  0.50000000  0.79323218  1
  Zr  Zr856  1  0.50000000  0.29323218  0.91572763  1
  Zr  Zr857  1  0.50000000  0.29323218  0.08427237  1
  Zr  Zr858  1  0.50000000  0.70676782  0.91572763  1
  Zr  Zr859  1  0.50000000  0.70676782  0.08427237  1
  Zr  Zr860  1  0.29323218  0.58427237  0.00000000  1
  Zr  Zr861  1  0.29323218  0.41572763  0.00000000  1
  Zr  Zr862  1  0.70676782  0.58427237  0.00000000  1
  Zr  Zr863  1  0.70676782  0.41572763  0.00000000  1
