# generated using pymatgen
data_Li6CaSI6
_symmetry_space_group_name_H-M   'P 1'
_cell_length_a   30.80315243
_cell_length_b   30.80315243
_cell_length_c   30.80315243
_cell_angle_alpha   90.00000000
_cell_angle_beta   90.00000000
_cell_angle_gamma   90.00000000
_symmetry_Int_Tables_number   1
_chemical_formula_structural   Li6CaSI6
_chemical_formula_sum   'Li576 Ca96 S96 I576'
_cell_volume   29227.08448156
_cell_formula_units_Z   96
loop_
 _symmetry_equiv_pos_site_id
 _symmetry_equiv_pos_as_xyz
  1  'x, y, z'
loop_
 _atom_site_type_symbol
 _atom_site_label
 _atom_site_symmetry_multiplicity
 _atom_site_fract_x
 _atom_site_fract_y
 _atom_site_fract_z
 _atom_site_occupancy
  Ca  Ca0  1  0.00000000  0.00000000  0.00000000  1
  Ca  Ca1  1  0.75000000  0.25000000  0.50000000  1
  Ca  Ca2  1  0.25000000  0.50000000  0.75000000  1
  Ca  Ca3  1  0.50000000  0.75000000  0.25000000  1
  Ca  Ca4  1  0.00000000  0.50000000  0.50000000  1
  Ca  Ca5  1  0.75000000  0.75000000  -0.00000000  1
  Ca  Ca6  1  0.25000000  0.00000000  0.25000000  1
  Ca  Ca7  1  0.50000000  0.25000000  0.75000000  1
  Ca  Ca8  1  0.50000000  0.00000000  0.50000000  1
  Ca  Ca9  1  0.25000000  0.25000000  -0.00000000  1
  Ca  Ca10  1  0.75000000  0.50000000  0.25000000  1
  Ca  Ca11  1  0.00000000  0.75000000  0.75000000  1
  Ca  Ca12  1  0.50000000  0.50000000  -0.00000000  1
  Ca  Ca13  1  0.25000000  0.75000000  0.50000000  1
  Ca  Ca14  1  0.75000000  -0.00000000  0.75000000  1
  Ca  Ca15  1  0.00000000  0.25000000  0.25000000  1
  Ca  Ca16  1  0.37500000  0.37500000  0.37500000  1
  Ca  Ca17  1  0.12500000  0.62500000  0.12500000  1
  Ca  Ca18  1  0.37500000  0.87500000  0.87500000  1
  Ca  Ca19  1  0.12500000  0.12500000  0.62500000  1
  Ca  Ca20  1  0.87500000  0.37500000  0.87500000  1
  Ca  Ca21  1  0.62500000  0.62500000  0.62500000  1
  Ca  Ca22  1  0.87500000  0.87500000  0.37500000  1
  Ca  Ca23  1  0.62500000  0.12500000  0.12500000  1
  Ca  Ca24  1  0.53300227  0.12500000  0.12500000  1
  Ca  Ca25  1  0.21699773  0.12500000  0.62500000  1
  Ca  Ca26  1  0.12500000  0.53300227  0.12500000  1
  Ca  Ca27  1  0.62500000  0.21699773  0.12500000  1
  Ca  Ca28  1  0.12500000  0.12500000  0.53300227  1
  Ca  Ca29  1  0.12500000  0.62500000  0.21699773  1
  Ca  Ca30  1  0.87500000  0.78300227  0.37500000  1
  Ca  Ca31  1  0.87500000  0.46699773  0.87500000  1
  Ca  Ca32  1  0.28300227  0.37500000  0.37500000  1
  Ca  Ca33  1  0.96699773  0.87500000  0.37500000  1
  Ca  Ca34  1  0.87500000  0.37500000  0.96699773  1
  Ca  Ca35  1  0.37500000  0.37500000  0.28300227  1
  Ca  Ca36  1  0.53300227  0.62500000  0.62500000  1
  Ca  Ca37  1  0.21699773  0.62500000  0.12500000  1
  Ca  Ca38  1  0.12500000  0.03300227  0.62500000  1
  Ca  Ca39  1  0.62500000  0.71699773  0.62500000  1
  Ca  Ca40  1  0.12500000  0.62500000  0.03300227  1
  Ca  Ca41  1  0.12500000  0.12500000  0.71699773  1
  Ca  Ca42  1  0.87500000  0.28300227  0.87500000  1
  Ca  Ca43  1  0.87500000  0.96699773  0.37500000  1
  Ca  Ca44  1  0.28300227  0.87500000  0.87500000  1
  Ca  Ca45  1  0.96699773  0.37500000  0.87500000  1
  Ca  Ca46  1  0.87500000  0.87500000  0.46699773  1
  Ca  Ca47  1  0.37500000  0.87500000  0.78300227  1
  Ca  Ca48  1  0.03300227  0.12500000  0.62500000  1
  Ca  Ca49  1  0.71699773  0.12500000  0.12500000  1
  Ca  Ca50  1  0.62500000  0.53300227  0.62500000  1
  Ca  Ca51  1  0.12500000  0.21699773  0.62500000  1
  Ca  Ca52  1  0.62500000  0.12500000  0.03300227  1
  Ca  Ca53  1  0.62500000  0.62500000  0.71699773  1
  Ca  Ca54  1  0.37500000  0.78300227  0.87500000  1
  Ca  Ca55  1  0.37500000  0.46699773  0.37500000  1
  Ca  Ca56  1  0.78300227  0.37500000  0.87500000  1
  Ca  Ca57  1  0.46699773  0.87500000  0.87500000  1
  Ca  Ca58  1  0.37500000  0.37500000  0.46699773  1
  Ca  Ca59  1  0.87500000  0.37500000  0.78300227  1
  Ca  Ca60  1  0.03300227  0.62500000  0.12500000  1
  Ca  Ca61  1  0.71699773  0.62500000  0.62500000  1
  Ca  Ca62  1  0.62500000  0.03300227  0.12500000  1
  Ca  Ca63  1  0.12500000  0.71699773  0.12500000  1
  Ca  Ca64  1  0.62500000  0.62500000  0.53300227  1
  Ca  Ca65  1  0.62500000  0.12500000  0.21699773  1
  Ca  Ca66  1  0.37500000  0.28300227  0.37500000  1
  Ca  Ca67  1  0.37500000  0.96699773  0.87500000  1
  Ca  Ca68  1  0.78300227  0.87500000  0.37500000  1
  Ca  Ca69  1  0.46699773  0.37500000  0.37500000  1
  Ca  Ca70  1  0.37500000  0.87500000  0.96699773  1
  Ca  Ca71  1  0.87500000  0.87500000  0.28300227  1
  Ca  Ca72  1  0.50000000  0.50000000  0.50000000  1
  Ca  Ca73  1  0.25000000  0.75000000  0.00000000  1
  Ca  Ca74  1  0.75000000  -0.00000000  0.25000000  1
  Ca  Ca75  1  0.00000000  0.25000000  0.75000000  1
  Ca  Ca76  1  0.50000000  0.00000000  0.00000000  1
  Ca  Ca77  1  0.25000000  0.25000000  0.50000000  1
  Ca  Ca78  1  0.75000000  0.50000000  0.75000000  1
  Ca  Ca79  1  0.00000000  0.75000000  0.25000000  1
  Ca  Ca80  1  0.00000000  0.50000000  0.00000000  1
  Ca  Ca81  1  0.75000000  0.75000000  0.50000000  1
  Ca  Ca82  1  0.25000000  0.00000000  0.75000000  1
  Ca  Ca83  1  0.50000000  0.25000000  0.25000000  1
  Ca  Ca84  1  0.00000000  0.00000000  0.50000000  1
  Ca  Ca85  1  0.75000000  0.25000000  -0.00000000  1
  Ca  Ca86  1  0.25000000  0.50000000  0.25000000  1
  Ca  Ca87  1  0.50000000  0.75000000  0.75000000  1
  Ca  Ca88  1  0.12500000  0.12500000  0.12500000  1
  Ca  Ca89  1  0.87500000  0.37500000  0.37500000  1
  Ca  Ca90  1  0.12500000  0.62500000  0.62500000  1
  Ca  Ca91  1  0.87500000  0.87500000  0.87500000  1
  Ca  Ca92  1  0.62500000  0.12500000  0.62500000  1
  Ca  Ca93  1  0.37500000  0.37500000  0.87500000  1
  Ca  Ca94  1  0.62500000  0.62500000  0.12500000  1
  Ca  Ca95  1  0.37500000  0.87500000  0.37500000  1
  I  I96  1  0.77387820  0.12500000  0.12500000  1
  I  I97  1  0.97612180  0.12500000  0.62500000  1
  I  I98  1  0.12500000  0.77387820  0.12500000  1
  I  I99  1  0.62500000  0.97612180  0.12500000  1
  I  I100  1  0.12500000  0.12500000  0.77387820  1
  I  I101  1  0.12500000  0.62500000  0.97612180  1
  I  I102  1  0.87500000  0.02387820  0.37500000  1
  I  I103  1  0.87500000  0.22612180  0.87500000  1
  I  I104  1  0.52387820  0.37500000  0.37500000  1
  I  I105  1  0.72612180  0.87500000  0.37500000  1
  I  I106  1  0.87500000  0.37500000  0.72612180  1
  I  I107  1  0.37500000  0.37500000  0.52387820  1
  I  I108  1  0.77387820  0.62500000  0.62500000  1
  I  I109  1  0.97612180  0.62500000  0.12500000  1
  I  I110  1  0.12500000  0.27387820  0.62500000  1
  I  I111  1  0.62500000  0.47612180  0.62500000  1
  I  I112  1  0.12500000  0.62500000  0.27387820  1
  I  I113  1  0.12500000  0.12500000  0.47612180  1
  I  I114  1  0.87500000  0.52387820  0.87500000  1
  I  I115  1  0.87500000  0.72612180  0.37500000  1
  I  I116  1  0.52387820  0.87500000  0.87500000  1
  I  I117  1  0.72612180  0.37500000  0.87500000  1
  I  I118  1  0.87500000  0.87500000  0.22612180  1
  I  I119  1  0.37500000  0.87500000  0.02387820  1
  I  I120  1  0.27387820  0.12500000  0.62500000  1
  I  I121  1  0.47612180  0.12500000  0.12500000  1
  I  I122  1  0.62500000  0.77387820  0.62500000  1
  I  I123  1  0.12500000  0.97612180  0.62500000  1
  I  I124  1  0.62500000  0.12500000  0.27387820  1
  I  I125  1  0.62500000  0.62500000  0.47612180  1
  I  I126  1  0.37500000  0.02387820  0.87500000  1
  I  I127  1  0.37500000  0.22612180  0.37500000  1
  I  I128  1  0.02387820  0.37500000  0.87500000  1
  I  I129  1  0.22612180  0.87500000  0.87500000  1
  I  I130  1  0.37500000  0.37500000  0.22612180  1
  I  I131  1  0.87500000  0.37500000  0.02387820  1
  I  I132  1  0.27387820  0.62500000  0.12500000  1
  I  I133  1  0.47612180  0.62500000  0.62500000  1
  I  I134  1  0.62500000  0.27387820  0.12500000  1
  I  I135  1  0.12500000  0.47612180  0.12500000  1
  I  I136  1  0.62500000  0.62500000  0.77387820  1
  I  I137  1  0.62500000  0.12500000  0.97612180  1
  I  I138  1  0.37500000  0.52387820  0.37500000  1
  I  I139  1  0.37500000  0.72612180  0.87500000  1
  I  I140  1  0.02387820  0.87500000  0.37500000  1
  I  I141  1  0.22612180  0.37500000  0.37500000  1
  I  I142  1  0.37500000  0.87500000  0.72612180  1
  I  I143  1  0.87500000  0.87500000  0.52387820  1
  I  I144  1  0.07803864  0.07803864  0.40759954  1
  I  I145  1  0.67196136  0.17196136  0.90759954  1
  I  I146  1  0.17196136  0.57803864  0.34240046  1
  I  I147  1  0.57803864  0.67196136  0.84240046  1
  I  I148  1  0.40759954  0.07803864  0.07803864  1
  I  I149  1  0.90759954  0.67196136  0.17196136  1
  I  I150  1  0.34240046  0.17196136  0.57803864  1
  I  I151  1  0.84240046  0.57803864  0.67196136  1
  I  I152  1  0.07803864  0.40759954  0.07803864  1
  I  I153  1  0.17196136  0.90759954  0.67196136  1
  I  I154  1  0.57803864  0.34240046  0.17196136  1
  I  I155  1  0.67196136  0.84240046  0.57803864  1
  I  I156  1  0.82803864  0.32803864  0.09240046  1
  I  I157  1  0.92196136  0.92196136  0.59240046  1
  I  I158  1  0.32803864  0.42196136  0.15759954  1
  I  I159  1  0.42196136  0.82803864  0.65759954  1
  I  I160  1  0.82803864  0.65759954  0.42196136  1
  I  I161  1  0.42196136  0.15759954  0.32803864  1
  I  I162  1  0.92196136  0.59240046  0.92196136  1
  I  I163  1  0.32803864  0.09240046  0.82803864  1
  I  I164  1  0.15759954  0.32803864  0.42196136  1
  I  I165  1  0.65759954  0.42196136  0.82803864  1
  I  I166  1  0.09240046  0.82803864  0.32803864  1
  I  I167  1  0.59240046  0.92196136  0.92196136  1
  I  I168  1  0.07803864  0.57803864  0.90759954  1
  I  I169  1  0.67196136  0.67196136  0.40759954  1
  I  I170  1  0.17196136  0.07803864  0.84240046  1
  I  I171  1  0.57803864  0.17196136  0.34240046  1
  I  I172  1  0.40759954  0.57803864  0.57803864  1
  I  I173  1  0.90759954  0.17196136  0.67196136  1
  I  I174  1  0.34240046  0.67196136  0.07803864  1
  I  I175  1  0.84240046  0.07803864  0.17196136  1
  I  I176  1  0.07803864  0.90759954  0.57803864  1
  I  I177  1  0.17196136  0.40759954  0.17196136  1
  I  I178  1  0.57803864  0.84240046  0.67196136  1
  I  I179  1  0.67196136  0.34240046  0.07803864  1
  I  I180  1  0.82803864  0.82803864  0.59240046  1
  I  I181  1  0.92196136  0.42196136  0.09240046  1
  I  I182  1  0.32803864  0.92196136  0.65759954  1
  I  I183  1  0.42196136  0.32803864  0.15759954  1
  I  I184  1  0.82803864  0.15759954  0.92196136  1
  I  I185  1  0.42196136  0.65759954  0.82803864  1
  I  I186  1  0.92196136  0.09240046  0.42196136  1
  I  I187  1  0.32803864  0.59240046  0.32803864  1
  I  I188  1  0.15759954  0.82803864  0.92196136  1
  I  I189  1  0.65759954  0.92196136  0.32803864  1
  I  I190  1  0.09240046  0.32803864  0.82803864  1
  I  I191  1  0.59240046  0.42196136  0.42196136  1
  I  I192  1  0.57803864  0.07803864  0.90759954  1
  I  I193  1  0.17196136  0.17196136  0.40759954  1
  I  I194  1  0.67196136  0.57803864  0.84240046  1
  I  I195  1  0.07803864  0.67196136  0.34240046  1
  I  I196  1  0.90759954  0.07803864  0.57803864  1
  I  I197  1  0.40759954  0.67196136  0.67196136  1
  I  I198  1  0.84240046  0.17196136  0.07803864  1
  I  I199  1  0.34240046  0.57803864  0.17196136  1
  I  I200  1  0.57803864  0.40759954  0.57803864  1
  I  I201  1  0.67196136  0.90759954  0.17196136  1
  I  I202  1  0.07803864  0.34240046  0.67196136  1
  I  I203  1  0.17196136  0.84240046  0.07803864  1
  I  I204  1  0.32803864  0.32803864  0.59240046  1
  I  I205  1  0.42196136  0.92196136  0.09240046  1
  I  I206  1  0.82803864  0.42196136  0.65759954  1
  I  I207  1  0.92196136  0.82803864  0.15759954  1
  I  I208  1  0.32803864  0.65759954  0.92196136  1
  I  I209  1  0.92196136  0.15759954  0.82803864  1
  I  I210  1  0.42196136  0.59240046  0.42196136  1
  I  I211  1  0.82803864  0.09240046  0.32803864  1
  I  I212  1  0.65759954  0.32803864  0.92196136  1
  I  I213  1  0.15759954  0.42196136  0.32803864  1
  I  I214  1  0.59240046  0.82803864  0.82803864  1
  I  I215  1  0.09240046  0.92196136  0.42196136  1
  I  I216  1  0.57803864  0.57803864  0.40759954  1
  I  I217  1  0.17196136  0.67196136  0.90759954  1
  I  I218  1  0.67196136  0.07803864  0.34240046  1
  I  I219  1  0.07803864  0.17196136  0.84240046  1
  I  I220  1  0.90759954  0.57803864  0.07803864  1
  I  I221  1  0.40759954  0.17196136  0.17196136  1
  I  I222  1  0.84240046  0.67196136  0.57803864  1
  I  I223  1  0.34240046  0.07803864  0.67196136  1
  I  I224  1  0.57803864  0.90759954  0.07803864  1
  I  I225  1  0.67196136  0.40759954  0.67196136  1
  I  I226  1  0.07803864  0.84240046  0.17196136  1
  I  I227  1  0.17196136  0.34240046  0.57803864  1
  I  I228  1  0.32803864  0.82803864  0.09240046  1
  I  I229  1  0.42196136  0.42196136  0.59240046  1
  I  I230  1  0.82803864  0.92196136  0.15759954  1
  I  I231  1  0.92196136  0.32803864  0.65759954  1
  I  I232  1  0.32803864  0.15759954  0.42196136  1
  I  I233  1  0.92196136  0.65759954  0.32803864  1
  I  I234  1  0.42196136  0.09240046  0.92196136  1
  I  I235  1  0.82803864  0.59240046  0.82803864  1
  I  I236  1  0.65759954  0.82803864  0.42196136  1
  I  I237  1  0.15759954  0.92196136  0.82803864  1
  I  I238  1  0.59240046  0.32803864  0.32803864  1
  I  I239  1  0.09240046  0.42196136  0.92196136  1
  I  I240  1  0.67115428  0.67115428  0.81722568  1
  I  I241  1  0.07884572  0.57884572  0.31722568  1
  I  I242  1  0.57884572  0.17115428  0.93277432  1
  I  I243  1  0.17115428  0.07884572  0.43277432  1
  I  I244  1  0.81722568  0.67115428  0.67115428  1
  I  I245  1  0.31722568  0.07884572  0.57884572  1
  I  I246  1  0.93277432  0.57884572  0.17115428  1
  I  I247  1  0.43277432  0.17115428  0.07884572  1
  I  I248  1  0.67115428  0.81722568  0.67115428  1
  I  I249  1  0.57884572  0.31722568  0.07884572  1
  I  I250  1  0.17115428  0.93277432  0.57884572  1
  I  I251  1  0.07884572  0.43277432  0.17115428  1
  I  I252  1  0.42115428  0.92115428  0.68277432  1
  I  I253  1  0.32884572  0.32884572  0.18277432  1
  I  I254  1  0.92115428  0.82884572  0.56722568  1
  I  I255  1  0.82884572  0.42115428  0.06722568  1
  I  I256  1  0.42115428  0.06722568  0.82884572  1
  I  I257  1  0.82884572  0.56722568  0.92115428  1
  I  I258  1  0.32884572  0.18277432  0.32884572  1
  I  I259  1  0.92115428  0.68277432  0.42115428  1
  I  I260  1  0.56722568  0.92115428  0.82884572  1
  I  I261  1  0.06722568  0.82884572  0.42115428  1
  I  I262  1  0.68277432  0.42115428  0.92115428  1
  I  I263  1  0.18277432  0.32884572  0.32884572  1
  I  I264  1  0.67115428  0.17115428  0.31722568  1
  I  I265  1  0.07884572  0.07884572  0.81722568  1
  I  I266  1  0.57884572  0.67115428  0.43277432  1
  I  I267  1  0.17115428  0.57884572  0.93277432  1
  I  I268  1  0.81722568  0.17115428  0.17115428  1
  I  I269  1  0.31722568  0.57884572  0.07884572  1
  I  I270  1  0.93277432  0.07884572  0.67115428  1
  I  I271  1  0.43277432  0.67115428  0.57884572  1
  I  I272  1  0.67115428  0.31722568  0.17115428  1
  I  I273  1  0.57884572  0.81722568  0.57884572  1
  I  I274  1  0.17115428  0.43277432  0.07884572  1
  I  I275  1  0.07884572  0.93277432  0.67115428  1
  I  I276  1  0.42115428  0.42115428  0.18277432  1
  I  I277  1  0.32884572  0.82884572  0.68277432  1
  I  I278  1  0.92115428  0.32884572  0.06722568  1
  I  I279  1  0.82884572  0.92115428  0.56722568  1
  I  I280  1  0.42115428  0.56722568  0.32884572  1
  I  I281  1  0.82884572  0.06722568  0.42115428  1
  I  I282  1  0.32884572  0.68277432  0.82884572  1
  I  I283  1  0.92115428  0.18277432  0.92115428  1
  I  I284  1  0.56722568  0.42115428  0.32884572  1
  I  I285  1  0.06722568  0.32884572  0.92115428  1
  I  I286  1  0.68277432  0.92115428  0.42115428  1
  I  I287  1  0.18277432  0.82884572  0.82884572  1
  I  I288  1  0.17115428  0.67115428  0.31722568  1
  I  I289  1  0.57884572  0.57884572  0.81722568  1
  I  I290  1  0.07884572  0.17115428  0.43277432  1
  I  I291  1  0.67115428  0.07884572  0.93277432  1
  I  I292  1  0.31722568  0.67115428  0.17115428  1
  I  I293  1  0.81722568  0.07884572  0.07884572  1
  I  I294  1  0.43277432  0.57884572  0.67115428  1
  I  I295  1  0.93277432  0.17115428  0.57884572  1
  I  I296  1  0.17115428  0.81722568  0.17115428  1
  I  I297  1  0.07884572  0.31722568  0.57884572  1
  I  I298  1  0.67115428  0.93277432  0.07884572  1
  I  I299  1  0.57884572  0.43277432  0.67115428  1
  I  I300  1  0.92115428  0.92115428  0.18277432  1
  I  I301  1  0.82884572  0.32884572  0.68277432  1
  I  I302  1  0.42115428  0.82884572  0.06722568  1
  I  I303  1  0.32884572  0.42115428  0.56722568  1
  I  I304  1  0.92115428  0.06722568  0.32884572  1
  I  I305  1  0.32884572  0.56722568  0.42115428  1
  I  I306  1  0.82884572  0.18277432  0.82884572  1
  I  I307  1  0.42115428  0.68277432  0.92115428  1
  I  I308  1  0.06722568  0.92115428  0.32884572  1
  I  I309  1  0.56722568  0.82884572  0.92115428  1
  I  I310  1  0.18277432  0.42115428  0.42115428  1
  I  I311  1  0.68277432  0.32884572  0.82884572  1
  I  I312  1  0.17115428  0.17115428  0.81722568  1
  I  I313  1  0.57884572  0.07884572  0.31722568  1
  I  I314  1  0.07884572  0.67115428  0.93277432  1
  I  I315  1  0.67115428  0.57884572  0.43277432  1
  I  I316  1  0.31722568  0.17115428  0.67115428  1
  I  I317  1  0.81722568  0.57884572  0.57884572  1
  I  I318  1  0.43277432  0.07884572  0.17115428  1
  I  I319  1  0.93277432  0.67115428  0.07884572  1
  I  I320  1  0.17115428  0.31722568  0.67115428  1
  I  I321  1  0.07884572  0.81722568  0.07884572  1
  I  I322  1  0.67115428  0.43277432  0.57884572  1
  I  I323  1  0.57884572  0.93277432  0.17115428  1
  I  I324  1  0.92115428  0.42115428  0.68277432  1
  I  I325  1  0.82884572  0.82884572  0.18277432  1
  I  I326  1  0.42115428  0.32884572  0.56722568  1
  I  I327  1  0.32884572  0.92115428  0.06722568  1
  I  I328  1  0.92115428  0.56722568  0.82884572  1
  I  I329  1  0.32884572  0.06722568  0.92115428  1
  I  I330  1  0.82884572  0.68277432  0.32884572  1
  I  I331  1  0.42115428  0.18277432  0.42115428  1
  I  I332  1  0.06722568  0.42115428  0.82884572  1
  I  I333  1  0.56722568  0.32884572  0.42115428  1
  I  I334  1  0.18277432  0.92115428  0.92115428  1
  I  I335  1  0.68277432  0.82884572  0.32884572  1
  I  I336  1  0.11565644  0.33889438  0.04898165  1
  I  I337  1  0.63434356  -0.08889438  0.54898165  1
  I  I338  1  0.13434356  0.83889438  0.70101835  1
  I  I339  1  0.61565644  0.41110562  0.20101835  1
  I  I340  1  0.04898165  0.11565644  0.33889438  1
  I  I341  1  0.54898165  0.63434356  -0.08889438  1
  I  I342  1  0.70101835  0.13434356  0.83889438  1
  I  I343  1  0.20101835  0.61565644  0.41110562  1
  I  I344  1  0.33889438  0.04898165  0.11565644  1
  I  I345  1  -0.08889438  0.54898165  0.63434356  1
  I  I346  1  0.83889438  0.70101835  0.13434356  1
  I  I347  1  0.41110562  0.20101835  0.61565644  1
  I  I348  1  1.08889438  0.36565644  0.45101835  1
  I  I349  1  -0.33889438  -0.11565644  -0.04898165  1
  I  I350  1  0.58889438  0.38434356  0.79898165  1
  I  I351  1  0.16110562  0.86565644  0.29898165  1
  I  I352  1  0.86565644  0.29898165  0.16110562  1
  I  I353  1  0.38434356  0.79898165  0.58889438  1
  I  I354  1  -0.11565644  -0.04898165  -0.33889438  1
  I  I355  1  0.36565644  0.45101835  1.08889438  1
  I  I356  1  0.79898165  0.58889438  0.38434356  1
  I  I357  1  0.29898165  0.16110562  0.86565644  1
  I  I358  1  0.45101835  1.08889438  0.36565644  1
  I  I359  1  -0.04898165  -0.33889438  -0.11565644  1
  I  I360  1  -0.11565644  -0.33889438  -0.04898165  1
  I  I361  1  0.36565644  1.08889438  0.45101835  1
  I  I362  1  0.86565644  0.16110562  0.29898165  1
  I  I363  1  0.38434356  0.58889438  0.79898165  1
  I  I364  1  -0.04898165  -0.11565644  -0.33889438  1
  I  I365  1  0.45101835  0.36565644  1.08889438  1
  I  I366  1  0.29898165  0.86565644  0.16110562  1
  I  I367  1  0.79898165  0.38434356  0.58889438  1
  I  I368  1  -0.33889438  -0.04898165  -0.11565644  1
  I  I369  1  1.08889438  0.45101835  0.36565644  1
  I  I370  1  0.16110562  0.29898165  0.86565644  1
  I  I371  1  0.58889438  0.79898165  0.38434356  1
  I  I372  1  -0.08889438  0.63434356  0.54898165  1
  I  I373  1  0.33889438  0.11565644  0.04898165  1
  I  I374  1  0.41110562  0.61565644  0.20101835  1
  I  I375  1  0.83889438  0.13434356  0.70101835  1
  I  I376  1  0.13434356  0.70101835  0.83889438  1
  I  I377  1  0.61565644  0.20101835  0.41110562  1
  I  I378  1  0.11565644  0.04898165  0.33889438  1
  I  I379  1  0.63434356  0.54898165  -0.08889438  1
  I  I380  1  0.20101835  0.41110562  0.61565644  1
  I  I381  1  0.70101835  0.83889438  0.13434356  1
  I  I382  1  0.54898165  -0.08889438  0.63434356  1
  I  I383  1  0.04898165  0.33889438  0.11565644  1
  I  I384  1  0.11565644  0.83889438  0.54898165  1
  I  I385  1  0.63434356  0.41110562  1.04898165  1
  I  I386  1  0.13434356  1.33889438  1.20101835  1
  I  I387  1  0.61565644  0.91110562  0.70101835  1
  I  I388  1  0.04898165  0.61565644  0.83889438  1
  I  I389  1  0.54898165  1.13434356  0.41110562  1
  I  I390  1  0.70101835  0.63434356  1.33889438  1
  I  I391  1  0.20101835  1.11565644  0.91110562  1
  I  I392  1  0.33889438  0.54898165  0.61565644  1
  I  I393  1  -0.08889438  1.04898165  1.13434356  1
  I  I394  1  0.83889438  1.20101835  0.63434356  1
  I  I395  1  0.41110562  0.70101835  1.11565644  1
  I  I396  1  1.08889438  0.86565644  0.95101835  1
  I  I397  1  -0.33889438  0.38434356  0.45101835  1
  I  I398  1  0.58889438  0.88434356  1.29898165  1
  I  I399  1  0.16110562  1.36565644  0.79898165  1
  I  I400  1  0.86565644  0.79898165  0.66110562  1
  I  I401  1  0.38434356  1.29898165  1.08889438  1
  I  I402  1  -0.11565644  0.45101835  0.16110562  1
  I  I403  1  0.36565644  0.95101835  1.58889438  1
  I  I404  1  0.79898165  1.08889438  0.88434356  1
  I  I405  1  0.29898165  0.66110562  1.36565644  1
  I  I406  1  0.45101835  1.58889438  0.86565644  1
  I  I407  1  -0.04898165  0.16110562  0.38434356  1
  I  I408  1  -0.11565644  0.16110562  0.45101835  1
  I  I409  1  0.36565644  1.58889438  0.95101835  1
  I  I410  1  0.86565644  0.66110562  0.79898165  1
  I  I411  1  0.38434356  1.08889438  1.29898165  1
  I  I412  1  -0.04898165  0.38434356  0.16110562  1
  I  I413  1  0.45101835  0.86565644  1.58889438  1
  I  I414  1  0.29898165  1.36565644  0.66110562  1
  I  I415  1  0.79898165  0.88434356  1.08889438  1
  I  I416  1  -0.33889438  0.45101835  0.38434356  1
  I  I417  1  1.08889438  0.95101835  0.86565644  1
  I  I418  1  0.16110562  0.79898165  1.36565644  1
  I  I419  1  0.58889438  1.29898165  0.88434356  1
  I  I420  1  -0.08889438  1.13434356  1.04898165  1
  I  I421  1  0.33889438  0.61565644  0.54898165  1
  I  I422  1  0.41110562  1.11565644  0.70101835  1
  I  I423  1  0.83889438  0.63434356  1.20101835  1
  I  I424  1  0.13434356  1.20101835  1.33889438  1
  I  I425  1  0.61565644  0.70101835  0.91110562  1
  I  I426  1  0.11565644  0.54898165  0.83889438  1
  I  I427  1  0.63434356  1.04898165  0.41110562  1
  I  I428  1  0.20101835  0.91110562  1.11565644  1
  I  I429  1  0.70101835  1.33889438  0.63434356  1
  I  I430  1  0.54898165  0.41110562  1.13434356  1
  I  I431  1  0.04898165  0.83889438  0.61565644  1
  I  I432  1  0.61565644  0.33889438  0.54898165  1
  I  I433  1  1.13434356  -0.08889438  1.04898165  1
  I  I434  1  0.63434356  0.83889438  1.20101835  1
  I  I435  1  1.11565644  0.41110562  0.70101835  1
  I  I436  1  0.54898165  0.11565644  0.83889438  1
  I  I437  1  1.04898165  0.63434356  0.41110562  1
  I  I438  1  1.20101835  0.13434356  1.33889438  1
  I  I439  1  0.70101835  0.61565644  0.91110562  1
  I  I440  1  0.83889438  0.04898165  0.61565644  1
  I  I441  1  0.41110562  0.54898165  1.13434356  1
  I  I442  1  1.33889438  0.70101835  0.63434356  1
  I  I443  1  0.91110562  0.20101835  1.11565644  1
  I  I444  1  1.58889438  0.36565644  0.95101835  1
  I  I445  1  0.16110562  -0.11565644  0.45101835  1
  I  I446  1  1.08889438  0.38434356  1.29898165  1
  I  I447  1  0.66110562  0.86565644  0.79898165  1
  I  I448  1  1.36565644  0.29898165  0.66110562  1
  I  I449  1  0.88434356  0.79898165  1.08889438  1
  I  I450  1  0.38434356  -0.04898165  0.16110562  1
  I  I451  1  0.86565644  0.45101835  1.58889438  1
  I  I452  1  1.29898165  0.58889438  0.88434356  1
  I  I453  1  0.79898165  0.16110562  1.36565644  1
  I  I454  1  0.95101835  1.08889438  0.86565644  1
  I  I455  1  0.45101835  -0.33889438  0.38434356  1
  I  I456  1  0.38434356  -0.33889438  0.45101835  1
  I  I457  1  0.86565644  1.08889438  0.95101835  1
  I  I458  1  1.36565644  0.16110562  0.79898165  1
  I  I459  1  0.88434356  0.58889438  1.29898165  1
  I  I460  1  0.45101835  -0.11565644  0.16110562  1
  I  I461  1  0.95101835  0.36565644  1.58889438  1
  I  I462  1  0.79898165  0.86565644  0.66110562  1
  I  I463  1  1.29898165  0.38434356  1.08889438  1
  I  I464  1  0.16110562  -0.04898165  0.38434356  1
  I  I465  1  1.58889438  0.45101835  0.86565644  1
  I  I466  1  0.66110562  0.29898165  1.36565644  1
  I  I467  1  1.08889438  0.79898165  0.88434356  1
  I  I468  1  0.41110562  0.63434356  1.04898165  1
  I  I469  1  0.83889438  0.11565644  0.54898165  1
  I  I470  1  0.91110562  0.61565644  0.70101835  1
  I  I471  1  1.33889438  0.13434356  1.20101835  1
  I  I472  1  0.63434356  0.70101835  1.33889438  1
  I  I473  1  1.11565644  0.20101835  0.91110562  1
  I  I474  1  0.61565644  0.04898165  0.83889438  1
  I  I475  1  1.13434356  0.54898165  0.41110562  1
  I  I476  1  0.70101835  0.41110562  1.11565644  1
  I  I477  1  1.20101835  0.83889438  0.63434356  1
  I  I478  1  1.04898165  -0.08889438  1.13434356  1
  I  I479  1  0.54898165  0.33889438  0.61565644  1
  I  I480  1  0.61565644  0.83889438  0.04898165  1
  I  I481  1  1.13434356  0.41110562  0.54898165  1
  I  I482  1  0.63434356  1.33889438  0.70101835  1
  I  I483  1  1.11565644  0.91110562  0.20101835  1
  I  I484  1  0.54898165  0.61565644  0.33889438  1
  I  I485  1  1.04898165  1.13434356  -0.08889438  1
  I  I486  1  1.20101835  0.63434356  0.83889438  1
  I  I487  1  0.70101835  1.11565644  0.41110562  1
  I  I488  1  0.83889438  0.54898165  0.11565644  1
  I  I489  1  0.41110562  1.04898165  0.63434356  1
  I  I490  1  1.33889438  1.20101835  0.13434356  1
  I  I491  1  0.91110562  0.70101835  0.61565644  1
  I  I492  1  1.58889438  0.86565644  0.45101835  1
  I  I493  1  0.16110562  0.38434356  -0.04898165  1
  I  I494  1  1.08889438  0.88434356  0.79898165  1
  I  I495  1  0.66110562  1.36565644  0.29898165  1
  I  I496  1  1.36565644  0.79898165  0.16110562  1
  I  I497  1  0.88434356  1.29898165  0.58889438  1
  I  I498  1  0.38434356  0.45101835  -0.33889438  1
  I  I499  1  0.86565644  0.95101835  1.08889438  1
  I  I500  1  1.29898165  1.08889438  0.38434356  1
  I  I501  1  0.79898165  0.66110562  0.86565644  1
  I  I502  1  0.95101835  1.58889438  0.36565644  1
  I  I503  1  0.45101835  0.16110562  -0.11565644  1
  I  I504  1  0.38434356  0.16110562  -0.04898165  1
  I  I505  1  0.86565644  1.58889438  0.45101835  1
  I  I506  1  1.36565644  0.66110562  0.29898165  1
  I  I507  1  0.88434356  1.08889438  0.79898165  1
  I  I508  1  0.45101835  0.38434356  -0.33889438  1
  I  I509  1  0.95101835  0.86565644  1.08889438  1
  I  I510  1  0.79898165  1.36565644  0.16110562  1
  I  I511  1  1.29898165  0.88434356  0.58889438  1
  I  I512  1  0.16110562  0.45101835  -0.11565644  1
  I  I513  1  1.58889438  0.95101835  0.36565644  1
  I  I514  1  0.66110562  0.79898165  0.86565644  1
  I  I515  1  1.08889438  1.29898165  0.38434356  1
  I  I516  1  0.41110562  1.13434356  0.54898165  1
  I  I517  1  0.83889438  0.61565644  0.04898165  1
  I  I518  1  0.91110562  1.11565644  0.20101835  1
  I  I519  1  1.33889438  0.63434356  0.70101835  1
  I  I520  1  0.63434356  1.20101835  0.83889438  1
  I  I521  1  1.11565644  0.70101835  0.41110562  1
  I  I522  1  0.61565644  0.54898165  0.33889438  1
  I  I523  1  1.13434356  1.04898165  -0.08889438  1
  I  I524  1  0.70101835  0.91110562  0.61565644  1
  I  I525  1  1.20101835  1.33889438  0.13434356  1
  I  I526  1  1.04898165  0.41110562  0.63434356  1
  I  I527  1  0.54898165  0.83889438  0.11565644  1
  I  I528  1  0.97368651  0.97368651  0.09437881  1
  I  I529  1  0.77631349  0.27631349  0.59437881  1
  I  I530  1  0.27631349  0.47368651  0.65562119  1
  I  I531  1  0.47368651  0.77631349  0.15562119  1
  I  I532  1  0.09437881  0.97368651  0.97368651  1
  I  I533  1  0.59437881  0.77631349  0.27631349  1
  I  I534  1  0.65562119  0.27631349  0.47368651  1
  I  I535  1  0.15562119  0.47368651  0.77631349  1
  I  I536  1  0.97368651  0.09437881  0.97368651  1
  I  I537  1  0.27631349  0.59437881  0.77631349  1
  I  I538  1  0.47368651  0.65562119  0.27631349  1
  I  I539  1  0.77631349  0.15562119  0.47368651  1
  I  I540  1  0.72368651  0.22368651  0.40562119  1
  I  I541  1  0.02631349  0.02631349  0.90562119  1
  I  I542  1  0.22368651  0.52631349  0.84437881  1
  I  I543  1  0.52631349  0.72368651  0.34437881  1
  I  I544  1  0.72368651  0.34437881  0.52631349  1
  I  I545  1  0.52631349  0.84437881  0.22368651  1
  I  I546  1  0.02631349  0.90562119  0.02631349  1
  I  I547  1  0.22368651  0.40562119  0.72368651  1
  I  I548  1  0.84437881  0.22368651  0.52631349  1
  I  I549  1  0.34437881  0.52631349  0.72368651  1
  I  I550  1  0.40562119  0.72368651  0.22368651  1
  I  I551  1  0.90562119  0.02631349  0.02631349  1
  I  I552  1  0.97368651  0.47368651  0.59437881  1
  I  I553  1  0.77631349  0.77631349  0.09437881  1
  I  I554  1  0.27631349  0.97368651  0.15562119  1
  I  I555  1  0.47368651  0.27631349  0.65562119  1
  I  I556  1  0.09437881  0.47368651  0.47368651  1
  I  I557  1  0.59437881  0.27631349  0.77631349  1
  I  I558  1  0.65562119  0.77631349  0.97368651  1
  I  I559  1  0.15562119  0.97368651  0.27631349  1
  I  I560  1  0.97368651  0.59437881  0.47368651  1
  I  I561  1  0.27631349  0.09437881  0.27631349  1
  I  I562  1  0.47368651  0.15562119  0.77631349  1
  I  I563  1  0.77631349  0.65562119  0.97368651  1
  I  I564  1  0.72368651  0.72368651  0.90562119  1
  I  I565  1  0.02631349  0.52631349  0.40562119  1
  I  I566  1  0.22368651  0.02631349  0.34437881  1
  I  I567  1  0.52631349  0.22368651  0.84437881  1
  I  I568  1  0.72368651  0.84437881  0.02631349  1
  I  I569  1  0.52631349  0.34437881  0.72368651  1
  I  I570  1  0.02631349  0.40562119  0.52631349  1
  I  I571  1  0.22368651  0.90562119  0.22368651  1
  I  I572  1  0.84437881  0.72368651  0.02631349  1
  I  I573  1  0.34437881  0.02631349  0.22368651  1
  I  I574  1  0.40562119  0.22368651  0.72368651  1
  I  I575  1  0.90562119  0.52631349  0.52631349  1
  I  I576  1  0.47368651  0.97368651  0.59437881  1
  I  I577  1  0.27631349  0.27631349  0.09437881  1
  I  I578  1  0.77631349  0.47368651  0.15562119  1
  I  I579  1  0.97368651  0.77631349  0.65562119  1
  I  I580  1  0.59437881  0.97368651  0.47368651  1
  I  I581  1  0.09437881  0.77631349  0.77631349  1
  I  I582  1  0.15562119  0.27631349  0.97368651  1
  I  I583  1  0.65562119  0.47368651  0.27631349  1
  I  I584  1  0.47368651  0.09437881  0.47368651  1
  I  I585  1  0.77631349  0.59437881  0.27631349  1
  I  I586  1  0.97368651  0.65562119  0.77631349  1
  I  I587  1  0.27631349  0.15562119  0.97368651  1
  I  I588  1  0.22368651  0.22368651  0.90562119  1
  I  I589  1  0.52631349  0.02631349  0.40562119  1
  I  I590  1  0.72368651  0.52631349  0.34437881  1
  I  I591  1  0.02631349  0.72368651  0.84437881  1
  I  I592  1  0.22368651  0.34437881  0.02631349  1
  I  I593  1  0.02631349  0.84437881  0.72368651  1
  I  I594  1  0.52631349  0.90562119  0.52631349  1
  I  I595  1  0.72368651  0.40562119  0.22368651  1
  I  I596  1  0.34437881  0.22368651  0.02631349  1
  I  I597  1  0.84437881  0.52631349  0.22368651  1
  I  I598  1  0.90562119  0.72368651  0.72368651  1
  I  I599  1  0.40562119  0.02631349  0.52631349  1
  I  I600  1  0.47368651  0.47368651  0.09437881  1
  I  I601  1  0.27631349  0.77631349  0.59437881  1
  I  I602  1  0.77631349  0.97368651  0.65562119  1
  I  I603  1  0.97368651  0.27631349  0.15562119  1
  I  I604  1  0.59437881  0.47368651  0.97368651  1
  I  I605  1  0.09437881  0.27631349  0.27631349  1
  I  I606  1  0.15562119  0.77631349  0.47368651  1
  I  I607  1  0.65562119  0.97368651  0.77631349  1
  I  I608  1  0.47368651  0.59437881  0.97368651  1
  I  I609  1  0.77631349  0.09437881  0.77631349  1
  I  I610  1  0.97368651  0.15562119  0.27631349  1
  I  I611  1  0.27631349  0.65562119  0.47368651  1
  I  I612  1  0.22368651  0.72368651  0.40562119  1
  I  I613  1  0.52631349  0.52631349  0.90562119  1
  I  I614  1  0.72368651  0.02631349  0.84437881  1
  I  I615  1  0.02631349  0.22368651  0.34437881  1
  I  I616  1  0.22368651  0.84437881  0.52631349  1
  I  I617  1  0.02631349  0.34437881  0.22368651  1
  I  I618  1  0.52631349  0.40562119  0.02631349  1
  I  I619  1  0.72368651  0.90562119  0.72368651  1
  I  I620  1  0.34437881  0.72368651  0.52631349  1
  I  I621  1  0.84437881  0.02631349  0.72368651  1
  I  I622  1  0.90562119  0.22368651  0.22368651  1
  I  I623  1  0.40562119  0.52631349  0.02631349  1
  I  I624  1  0.03011961  0.12500000  0.12500000  1
  I  I625  1  0.71988039  0.12500000  0.62500000  1
  I  I626  1  0.12500000  0.03011961  0.12500000  1
  I  I627  1  0.62500000  0.71988039  0.12500000  1
  I  I628  1  0.12500000  0.12500000  0.03011961  1
  I  I629  1  0.12500000  0.62500000  0.71988039  1
  I  I630  1  0.87500000  0.28011961  0.37500000  1
  I  I631  1  0.87500000  0.96988039  0.87500000  1
  I  I632  1  0.78011961  0.37500000  0.37500000  1
  I  I633  1  0.46988039  0.87500000  0.37500000  1
  I  I634  1  0.87500000  0.37500000  0.46988039  1
  I  I635  1  0.37500000  0.37500000  0.78011961  1
  I  I636  1  0.03011961  0.62500000  0.62500000  1
  I  I637  1  0.71988039  0.62500000  0.12500000  1
  I  I638  1  0.12500000  0.53011961  0.62500000  1
  I  I639  1  0.62500000  0.21988039  0.62500000  1
  I  I640  1  0.12500000  0.62500000  0.53011961  1
  I  I641  1  0.12500000  0.12500000  0.21988039  1
  I  I642  1  0.87500000  0.78011961  0.87500000  1
  I  I643  1  0.87500000  0.46988039  0.37500000  1
  I  I644  1  0.78011961  0.87500000  0.87500000  1
  I  I645  1  0.46988039  0.37500000  0.87500000  1
  I  I646  1  0.87500000  0.87500000  0.96988039  1
  I  I647  1  0.37500000  0.87500000  0.28011961  1
  I  I648  1  0.53011961  0.12500000  0.62500000  1
  I  I649  1  0.21988039  0.12500000  0.12500000  1
  I  I650  1  0.62500000  0.03011961  0.62500000  1
  I  I651  1  0.12500000  0.71988039  0.62500000  1
  I  I652  1  0.62500000  0.12500000  0.53011961  1
  I  I653  1  0.62500000  0.62500000  0.21988039  1
  I  I654  1  0.37500000  0.28011961  0.87500000  1
  I  I655  1  0.37500000  0.96988039  0.37500000  1
  I  I656  1  0.28011961  0.37500000  0.87500000  1
  I  I657  1  0.96988039  0.87500000  0.87500000  1
  I  I658  1  0.37500000  0.37500000  0.96988039  1
  I  I659  1  0.87500000  0.37500000  0.28011961  1
  I  I660  1  0.53011961  0.62500000  0.12500000  1
  I  I661  1  0.21988039  0.62500000  0.62500000  1
  I  I662  1  0.62500000  0.53011961  0.12500000  1
  I  I663  1  0.12500000  0.21988039  0.12500000  1
  I  I664  1  0.62500000  0.62500000  0.03011961  1
  I  I665  1  0.62500000  0.12500000  0.71988039  1
  I  I666  1  0.37500000  0.78011961  0.37500000  1
  I  I667  1  0.37500000  0.46988039  0.87500000  1
  I  I668  1  0.28011961  0.87500000  0.37500000  1
  I  I669  1  0.96988039  0.37500000  0.37500000  1
  I  I670  1  0.37500000  0.87500000  0.46988039  1
  I  I671  1  0.87500000  0.87500000  0.78011961  1
  Li  Li672  1  0.29880920  0.12500000  0.12500000  1
  Li  Li673  1  0.45119080  0.12500000  0.62500000  1
  Li  Li674  1  0.12500000  0.29880920  0.12500000  1
  Li  Li675  1  0.62500000  0.45119080  0.12500000  1
  Li  Li676  1  0.12500000  0.12500000  0.29880920  1
  Li  Li677  1  0.12500000  0.62500000  0.45119080  1
  Li  Li678  1  0.87500000  0.54880920  0.37500000  1
  Li  Li679  1  0.87500000  0.70119080  0.87500000  1
  Li  Li680  1  0.04880920  0.37500000  0.37500000  1
  Li  Li681  1  0.20119080  0.87500000  0.37500000  1
  Li  Li682  1  0.87500000  0.37500000  0.20119080  1
  Li  Li683  1  0.37500000  0.37500000  0.04880920  1
  Li  Li684  1  0.29880920  0.62500000  0.62500000  1
  Li  Li685  1  0.45119080  0.62500000  0.12500000  1
  Li  Li686  1  0.12500000  0.79880920  0.62500000  1
  Li  Li687  1  0.62500000  0.95119080  0.62500000  1
  Li  Li688  1  0.12500000  0.62500000  0.79880920  1
  Li  Li689  1  0.12500000  0.12500000  0.95119080  1
  Li  Li690  1  0.87500000  0.04880920  0.87500000  1
  Li  Li691  1  0.87500000  0.20119080  0.37500000  1
  Li  Li692  1  0.04880920  0.87500000  0.87500000  1
  Li  Li693  1  0.20119080  0.37500000  0.87500000  1
  Li  Li694  1  0.87500000  0.87500000  0.70119080  1
  Li  Li695  1  0.37500000  0.87500000  0.54880920  1
  Li  Li696  1  0.79880920  0.12500000  0.62500000  1
  Li  Li697  1  0.95119080  0.12500000  0.12500000  1
  Li  Li698  1  0.62500000  0.29880920  0.62500000  1
  Li  Li699  1  0.12500000  0.45119080  0.62500000  1
  Li  Li700  1  0.62500000  0.12500000  0.79880920  1
  Li  Li701  1  0.62500000  0.62500000  0.95119080  1
  Li  Li702  1  0.37500000  0.54880920  0.87500000  1
  Li  Li703  1  0.37500000  0.70119080  0.37500000  1
  Li  Li704  1  0.54880920  0.37500000  0.87500000  1
  Li  Li705  1  0.70119080  0.87500000  0.87500000  1
  Li  Li706  1  0.37500000  0.37500000  0.70119080  1
  Li  Li707  1  0.87500000  0.37500000  0.54880920  1
  Li  Li708  1  0.79880920  0.62500000  0.12500000  1
  Li  Li709  1  0.95119080  0.62500000  0.62500000  1
  Li  Li710  1  0.62500000  0.79880920  0.12500000  1
  Li  Li711  1  0.12500000  0.95119080  0.12500000  1
  Li  Li712  1  0.62500000  0.62500000  0.29880920  1
  Li  Li713  1  0.62500000  0.12500000  0.45119080  1
  Li  Li714  1  0.37500000  0.04880920  0.37500000  1
  Li  Li715  1  0.37500000  0.20119080  0.87500000  1
  Li  Li716  1  0.54880920  0.87500000  0.37500000  1
  Li  Li717  1  0.70119080  0.37500000  0.37500000  1
  Li  Li718  1  0.37500000  0.87500000  0.20119080  1
  Li  Li719  1  0.87500000  0.87500000  0.04880920  1
  Li  Li720  1  0.46289660  0.06412801  0.75664063  1
  Li  Li721  1  0.28710340  0.18587199  0.25664063  1
  Li  Li722  1  0.78710340  0.56412801  0.99335937  1
  Li  Li723  1  0.96289660  0.68587199  0.49335937  1
  Li  Li724  1  0.75664063  0.46289660  0.06412801  1
  Li  Li725  1  0.25664063  0.28710340  0.18587199  1
  Li  Li726  1  0.99335937  0.78710340  0.56412801  1
  Li  Li727  1  0.49335937  0.96289660  0.68587199  1
  Li  Li728  1  0.06412801  0.75664063  0.46289660  1
  Li  Li729  1  0.18587199  0.25664063  0.28710340  1
  Li  Li730  1  0.56412801  0.99335937  0.78710340  1
  Li  Li731  1  0.68587199  0.49335937  0.96289660  1
  Li  Li732  1  0.81412801  0.71289660  0.74335937  1
  Li  Li733  1  0.93587199  0.53710340  0.24335937  1
  Li  Li734  1  0.31412801  0.03710340  0.50664063  1
  Li  Li735  1  0.43587199  0.21289660  0.00664063  1
  Li  Li736  1  0.21289660  0.00664063  0.43587199  1
  Li  Li737  1  0.03710340  0.50664063  0.31412801  1
  Li  Li738  1  0.53710340  0.24335937  0.93587199  1
  Li  Li739  1  0.71289660  0.74335937  0.81412801  1
  Li  Li740  1  0.50664063  0.31412801  0.03710340  1
  Li  Li741  1  0.00664063  0.43587199  0.21289660  1
  Li  Li742  1  0.74335937  0.81412801  0.71289660  1
  Li  Li743  1  0.24335937  0.93587199  0.53710340  1
  Li  Li744  1  0.53710340  0.93587199  0.24335937  1
  Li  Li745  1  0.71289660  0.81412801  0.74335937  1
  Li  Li746  1  0.21289660  0.43587199  0.00664063  1
  Li  Li747  1  0.03710340  0.31412801  0.50664063  1
  Li  Li748  1  0.24335937  0.53710340  0.93587199  1
  Li  Li749  1  0.74335937  0.71289660  0.81412801  1
  Li  Li750  1  0.00664063  0.21289660  0.43587199  1
  Li  Li751  1  0.50664063  0.03710340  0.31412801  1
  Li  Li752  1  0.93587199  0.24335937  0.53710340  1
  Li  Li753  1  0.81412801  0.74335937  0.71289660  1
  Li  Li754  1  0.43587199  0.00664063  0.21289660  1
  Li  Li755  1  0.31412801  0.50664063  0.03710340  1
  Li  Li756  1  0.18587199  0.28710340  0.25664063  1
  Li  Li757  1  0.06412801  0.46289660  0.75664063  1
  Li  Li758  1  0.68587199  0.96289660  0.49335937  1
  Li  Li759  1  0.56412801  0.78710340  0.99335937  1
  Li  Li760  1  0.78710340  0.99335937  0.56412801  1
  Li  Li761  1  0.96289660  0.49335937  0.68587199  1
  Li  Li762  1  0.46289660  0.75664063  0.06412801  1
  Li  Li763  1  0.28710340  0.25664063  0.18587199  1
  Li  Li764  1  0.49335937  0.68587199  0.96289660  1
  Li  Li765  1  0.99335937  0.56412801  0.78710340  1
  Li  Li766  1  0.25664063  0.18587199  0.28710340  1
  Li  Li767  1  0.75664063  0.06412801  0.46289660  1
  Li  Li768  1  0.46289660  0.56412801  0.25664063  1
  Li  Li769  1  0.28710340  0.68587199  0.75664063  1
  Li  Li770  1  0.78710340  0.06412801  0.49335937  1
  Li  Li771  1  0.96289660  0.18587199  0.99335937  1
  Li  Li772  1  0.75664063  0.96289660  0.56412801  1
  Li  Li773  1  0.25664063  0.78710340  0.68587199  1
  Li  Li774  1  0.99335937  0.28710340  0.06412801  1
  Li  Li775  1  0.49335937  0.46289660  0.18587199  1
  Li  Li776  1  0.06412801  0.25664063  0.96289660  1
  Li  Li777  1  0.18587199  0.75664063  0.78710340  1
  Li  Li778  1  0.56412801  0.49335937  0.28710340  1
  Li  Li779  1  0.68587199  0.99335937  0.46289660  1
  Li  Li780  1  0.81412801  0.21289660  0.24335937  1
  Li  Li781  1  0.93587199  0.03710340  0.74335937  1
  Li  Li782  1  0.31412801  0.53710340  0.00664063  1
  Li  Li783  1  0.43587199  0.71289660  0.50664063  1
  Li  Li784  1  0.21289660  0.50664063  0.93587199  1
  Li  Li785  1  0.03710340  0.00664063  0.81412801  1
  Li  Li786  1  0.53710340  0.74335937  0.43587199  1
  Li  Li787  1  0.71289660  0.24335937  0.31412801  1
  Li  Li788  1  0.50664063  0.81412801  0.53710340  1
  Li  Li789  1  0.00664063  0.93587199  0.71289660  1
  Li  Li790  1  0.74335937  0.31412801  0.21289660  1
  Li  Li791  1  0.24335937  0.43587199  0.03710340  1
  Li  Li792  1  0.53710340  0.43587199  0.74335937  1
  Li  Li793  1  0.71289660  0.31412801  0.24335937  1
  Li  Li794  1  0.21289660  0.93587199  0.50664063  1
  Li  Li795  1  0.03710340  0.81412801  0.00664063  1
  Li  Li796  1  0.24335937  0.03710340  0.43587199  1
  Li  Li797  1  0.74335937  0.21289660  0.31412801  1
  Li  Li798  1  0.00664063  0.71289660  0.93587199  1
  Li  Li799  1  0.50664063  0.53710340  0.81412801  1
  Li  Li800  1  0.93587199  0.74335937  0.03710340  1
  Li  Li801  1  0.81412801  0.24335937  0.21289660  1
  Li  Li802  1  0.43587199  0.50664063  0.71289660  1
  Li  Li803  1  0.31412801  0.00664063  0.53710340  1
  Li  Li804  1  0.18587199  0.78710340  0.75664063  1
  Li  Li805  1  0.06412801  0.96289660  0.25664063  1
  Li  Li806  1  0.68587199  0.46289660  0.99335937  1
  Li  Li807  1  0.56412801  0.28710340  0.49335937  1
  Li  Li808  1  0.78710340  0.49335937  0.06412801  1
  Li  Li809  1  0.96289660  0.99335937  0.18587199  1
  Li  Li810  1  0.46289660  0.25664063  0.56412801  1
  Li  Li811  1  0.28710340  0.75664063  0.68587199  1
  Li  Li812  1  0.49335937  0.18587199  0.46289660  1
  Li  Li813  1  0.99335937  0.06412801  0.28710340  1
  Li  Li814  1  0.25664063  0.68587199  0.78710340  1
  Li  Li815  1  0.75664063  0.56412801  0.96289660  1
  Li  Li816  1  0.96289660  0.06412801  0.25664063  1
  Li  Li817  1  0.78710340  0.18587199  0.75664063  1
  Li  Li818  1  0.28710340  0.56412801  0.49335937  1
  Li  Li819  1  0.46289660  0.68587199  0.99335937  1
  Li  Li820  1  0.25664063  0.46289660  0.56412801  1
  Li  Li821  1  0.75664063  0.28710340  0.68587199  1
  Li  Li822  1  0.49335937  0.78710340  0.06412801  1
  Li  Li823  1  0.99335937  0.96289660  0.18587199  1
  Li  Li824  1  0.56412801  0.75664063  0.96289660  1
  Li  Li825  1  0.68587199  0.25664063  0.78710340  1
  Li  Li826  1  0.06412801  0.99335937  0.28710340  1
  Li  Li827  1  0.18587199  0.49335937  0.46289660  1
  Li  Li828  1  0.31412801  0.71289660  0.24335937  1
  Li  Li829  1  0.43587199  0.53710340  0.74335937  1
  Li  Li830  1  0.81412801  0.03710340  0.00664063  1
  Li  Li831  1  0.93587199  0.21289660  0.50664063  1
  Li  Li832  1  0.71289660  0.00664063  0.93587199  1
  Li  Li833  1  0.53710340  0.50664063  0.81412801  1
  Li  Li834  1  0.03710340  0.24335937  0.43587199  1
  Li  Li835  1  0.21289660  0.74335937  0.31412801  1
  Li  Li836  1  0.00664063  0.31412801  0.53710340  1
  Li  Li837  1  0.50664063  0.43587199  0.71289660  1
  Li  Li838  1  0.24335937  0.81412801  0.21289660  1
  Li  Li839  1  0.74335937  0.93587199  0.03710340  1
  Li  Li840  1  0.03710340  0.93587199  0.74335937  1
  Li  Li841  1  0.21289660  0.81412801  0.24335937  1
  Li  Li842  1  0.71289660  0.43587199  0.50664063  1
  Li  Li843  1  0.53710340  0.31412801  0.00664063  1
  Li  Li844  1  0.74335937  0.53710340  0.43587199  1
  Li  Li845  1  0.24335937  0.71289660  0.31412801  1
  Li  Li846  1  0.50664063  0.21289660  0.93587199  1
  Li  Li847  1  0.00664063  0.03710340  0.81412801  1
  Li  Li848  1  0.43587199  0.24335937  0.03710340  1
  Li  Li849  1  0.31412801  0.74335937  0.21289660  1
  Li  Li850  1  0.93587199  0.00664063  0.71289660  1
  Li  Li851  1  0.81412801  0.50664063  0.53710340  1
  Li  Li852  1  0.68587199  0.28710340  0.75664063  1
  Li  Li853  1  0.56412801  0.46289660  0.25664063  1
  Li  Li854  1  0.18587199  0.96289660  0.99335937  1
  Li  Li855  1  0.06412801  0.78710340  0.49335937  1
  Li  Li856  1  0.28710340  0.99335937  0.06412801  1
  Li  Li857  1  0.46289660  0.49335937  0.18587199  1
  Li  Li858  1  0.96289660  0.75664063  0.56412801  1
  Li  Li859  1  0.78710340  0.25664063  0.68587199  1
  Li  Li860  1  0.99335937  0.68587199  0.46289660  1
  Li  Li861  1  0.49335937  0.56412801  0.28710340  1
  Li  Li862  1  0.75664063  0.18587199  0.78710340  1
  Li  Li863  1  0.25664063  0.06412801  0.96289660  1
  Li  Li864  1  0.96289660  0.56412801  0.75664063  1
  Li  Li865  1  0.78710340  0.68587199  0.25664063  1
  Li  Li866  1  0.28710340  0.06412801  0.99335937  1
  Li  Li867  1  0.46289660  0.18587199  0.49335937  1
  Li  Li868  1  0.25664063  0.96289660  0.06412801  1
  Li  Li869  1  0.75664063  0.78710340  0.18587199  1
  Li  Li870  1  0.49335937  0.28710340  0.56412801  1
  Li  Li871  1  0.99335937  0.46289660  0.68587199  1
  Li  Li872  1  0.56412801  0.25664063  0.46289660  1
  Li  Li873  1  0.68587199  0.75664063  0.28710340  1
  Li  Li874  1  0.06412801  0.49335937  0.78710340  1
  Li  Li875  1  0.18587199  0.99335937  0.96289660  1
  Li  Li876  1  0.31412801  0.21289660  0.74335937  1
  Li  Li877  1  0.43587199  0.03710340  0.24335937  1
  Li  Li878  1  0.81412801  0.53710340  0.50664063  1
  Li  Li879  1  0.93587199  0.71289660  0.00664063  1
  Li  Li880  1  0.71289660  0.50664063  0.43587199  1
  Li  Li881  1  0.53710340  0.00664063  0.31412801  1
  Li  Li882  1  0.03710340  0.74335937  0.93587199  1
  Li  Li883  1  0.21289660  0.24335937  0.81412801  1
  Li  Li884  1  0.00664063  0.81412801  0.03710340  1
  Li  Li885  1  0.50664063  0.93587199  0.21289660  1
  Li  Li886  1  0.24335937  0.31412801  0.71289660  1
  Li  Li887  1  0.74335937  0.43587199  0.53710340  1
  Li  Li888  1  0.03710340  0.43587199  0.24335937  1
  Li  Li889  1  0.21289660  0.31412801  0.74335937  1
  Li  Li890  1  0.71289660  0.93587199  0.00664063  1
  Li  Li891  1  0.53710340  0.81412801  0.50664063  1
  Li  Li892  1  0.74335937  0.03710340  0.93587199  1
  Li  Li893  1  0.24335937  0.21289660  0.81412801  1
  Li  Li894  1  0.50664063  0.71289660  0.43587199  1
  Li  Li895  1  0.00664063  0.53710340  0.31412801  1
  Li  Li896  1  0.43587199  0.74335937  0.53710340  1
  Li  Li897  1  0.31412801  0.24335937  0.71289660  1
  Li  Li898  1  0.93587199  0.50664063  0.21289660  1
  Li  Li899  1  0.81412801  0.00664063  0.03710340  1
  Li  Li900  1  0.68587199  0.78710340  0.25664063  1
  Li  Li901  1  0.56412801  0.96289660  0.75664063  1
  Li  Li902  1  0.18587199  0.46289660  0.49335937  1
  Li  Li903  1  0.06412801  0.28710340  0.99335937  1
  Li  Li904  1  0.28710340  0.49335937  0.56412801  1
  Li  Li905  1  0.46289660  0.99335937  0.68587199  1
  Li  Li906  1  0.96289660  0.25664063  0.06412801  1
  Li  Li907  1  0.78710340  0.75664063  0.18587199  1
  Li  Li908  1  0.99335937  0.18587199  0.96289660  1
  Li  Li909  1  0.49335937  0.06412801  0.78710340  1
  Li  Li910  1  0.75664063  0.68587199  0.28710340  1
  Li  Li911  1  0.25664063  0.56412801  0.46289660  1
  Li  Li912  1  0.58721900  0.58721900  0.13000876  1
  Li  Li913  1  0.16278100  0.66278100  0.63000876  1
  Li  Li914  1  0.66278100  0.08721900  0.61999124  1
  Li  Li915  1  0.08721900  0.16278100  0.11999124  1
  Li  Li916  1  0.13000876  0.58721900  0.58721900  1
  Li  Li917  1  0.63000876  0.16278100  0.66278100  1
  Li  Li918  1  0.61999124  0.66278100  0.08721900  1
  Li  Li919  1  0.11999124  0.08721900  0.16278100  1
  Li  Li920  1  0.58721900  0.13000876  0.58721900  1
  Li  Li921  1  0.66278100  0.63000876  0.16278100  1
  Li  Li922  1  0.08721900  0.61999124  0.66278100  1
  Li  Li923  1  0.16278100  0.11999124  0.08721900  1
  Li  Li924  1  0.33721900  0.83721900  0.36999124  1
  Li  Li925  1  0.41278100  0.41278100  0.86999124  1
  Li  Li926  1  0.83721900  0.91278100  0.88000876  1
  Li  Li927  1  0.91278100  0.33721900  0.38000876  1
  Li  Li928  1  0.33721900  0.38000876  0.91278100  1
  Li  Li929  1  0.91278100  0.88000876  0.83721900  1
  Li  Li930  1  0.41278100  0.86999124  0.41278100  1
  Li  Li931  1  0.83721900  0.36999124  0.33721900  1
  Li  Li932  1  0.88000876  0.83721900  0.91278100  1
  Li  Li933  1  0.38000876  0.91278100  0.33721900  1
  Li  Li934  1  0.36999124  0.33721900  0.83721900  1
  Li  Li935  1  0.86999124  0.41278100  0.41278100  1
  Li  Li936  1  0.58721900  0.08721900  0.63000876  1
  Li  Li937  1  0.16278100  0.16278100  0.13000876  1
  Li  Li938  1  0.66278100  0.58721900  0.11999124  1
  Li  Li939  1  0.08721900  0.66278100  0.61999124  1
  Li  Li940  1  0.13000876  0.08721900  0.08721900  1
  Li  Li941  1  0.63000876  0.66278100  0.16278100  1
  Li  Li942  1  0.61999124  0.16278100  0.58721900  1
  Li  Li943  1  0.11999124  0.58721900  0.66278100  1
  Li  Li944  1  0.58721900  0.63000876  0.08721900  1
  Li  Li945  1  0.66278100  0.13000876  0.66278100  1
  Li  Li946  1  0.08721900  0.11999124  0.16278100  1
  Li  Li947  1  0.16278100  0.61999124  0.58721900  1
  Li  Li948  1  0.33721900  0.33721900  0.86999124  1
  Li  Li949  1  0.41278100  0.91278100  0.36999124  1
  Li  Li950  1  0.83721900  0.41278100  0.38000876  1
  Li  Li951  1  0.91278100  0.83721900  0.88000876  1
  Li  Li952  1  0.33721900  0.88000876  0.41278100  1
  Li  Li953  1  0.91278100  0.38000876  0.33721900  1
  Li  Li954  1  0.41278100  0.36999124  0.91278100  1
  Li  Li955  1  0.83721900  0.86999124  0.83721900  1
  Li  Li956  1  0.88000876  0.33721900  0.41278100  1
  Li  Li957  1  0.38000876  0.41278100  0.83721900  1
  Li  Li958  1  0.36999124  0.83721900  0.33721900  1
  Li  Li959  1  0.86999124  0.91278100  0.91278100  1
  Li  Li960  1  0.08721900  0.58721900  0.63000876  1
  Li  Li961  1  0.66278100  0.66278100  0.13000876  1
  Li  Li962  1  0.16278100  0.08721900  0.11999124  1
  Li  Li963  1  0.58721900  0.16278100  0.61999124  1
  Li  Li964  1  0.63000876  0.58721900  0.08721900  1
  Li  Li965  1  0.13000876  0.16278100  0.16278100  1
  Li  Li966  1  0.11999124  0.66278100  0.58721900  1
  Li  Li967  1  0.61999124  0.08721900  0.66278100  1
  Li  Li968  1  0.08721900  0.13000876  0.08721900  1
  Li  Li969  1  0.16278100  0.63000876  0.66278100  1
  Li  Li970  1  0.58721900  0.61999124  0.16278100  1
  Li  Li971  1  0.66278100  0.11999124  0.58721900  1
  Li  Li972  1  0.83721900  0.83721900  0.86999124  1
  Li  Li973  1  0.91278100  0.41278100  0.36999124  1
  Li  Li974  1  0.33721900  0.91278100  0.38000876  1
  Li  Li975  1  0.41278100  0.33721900  0.88000876  1
  Li  Li976  1  0.83721900  0.38000876  0.41278100  1
  Li  Li977  1  0.41278100  0.88000876  0.33721900  1
  Li  Li978  1  0.91278100  0.86999124  0.91278100  1
  Li  Li979  1  0.33721900  0.36999124  0.83721900  1
  Li  Li980  1  0.38000876  0.83721900  0.41278100  1
  Li  Li981  1  0.88000876  0.91278100  0.83721900  1
  Li  Li982  1  0.86999124  0.33721900  0.33721900  1
  Li  Li983  1  0.36999124  0.41278100  0.91278100  1
  Li  Li984  1  0.08721900  0.08721900  0.13000876  1
  Li  Li985  1  0.66278100  0.16278100  0.63000876  1
  Li  Li986  1  0.16278100  0.58721900  0.61999124  1
  Li  Li987  1  0.58721900  0.66278100  0.11999124  1
  Li  Li988  1  0.63000876  0.08721900  0.58721900  1
  Li  Li989  1  0.13000876  0.66278100  0.66278100  1
  Li  Li990  1  0.11999124  0.16278100  0.08721900  1
  Li  Li991  1  0.61999124  0.58721900  0.16278100  1
  Li  Li992  1  0.08721900  0.63000876  0.58721900  1
  Li  Li993  1  0.16278100  0.13000876  0.16278100  1
  Li  Li994  1  0.58721900  0.11999124  0.66278100  1
  Li  Li995  1  0.66278100  0.61999124  0.08721900  1
  Li  Li996  1  0.83721900  0.33721900  0.36999124  1
  Li  Li997  1  0.91278100  0.91278100  0.86999124  1
  Li  Li998  1  0.33721900  0.41278100  0.88000876  1
  Li  Li999  1  0.41278100  0.83721900  0.38000876  1
  Li  Li1000  1  0.83721900  0.88000876  0.91278100  1
  Li  Li1001  1  0.41278100  0.38000876  0.83721900  1
  Li  Li1002  1  0.91278100  0.36999124  0.41278100  1
  Li  Li1003  1  0.33721900  0.86999124  0.33721900  1
  Li  Li1004  1  0.38000876  0.33721900  0.91278100  1
  Li  Li1005  1  0.88000876  0.41278100  0.33721900  1
  Li  Li1006  1  0.86999124  0.83721900  0.83721900  1
  Li  Li1007  1  0.36999124  0.91278100  0.41278100  1
  Li  Li1008  1  0.29136860  0.02328202  0.12812630  1
  Li  Li1009  1  0.45863140  0.22671798  0.62812630  1
  Li  Li1010  1  0.95863140  0.52328202  0.62187370  1
  Li  Li1011  1  0.79136860  0.72671798  0.12187370  1
  Li  Li1012  1  0.12812630  0.29136860  0.02328202  1
  Li  Li1013  1  0.62812630  0.45863140  0.22671798  1
  Li  Li1014  1  0.62187370  0.95863140  0.52328202  1
  Li  Li1015  1  0.12187370  0.79136860  0.72671798  1
  Li  Li1016  1  0.02328202  0.12812630  0.29136860  1
  Li  Li1017  1  0.22671798  0.62812630  0.45863140  1
  Li  Li1018  1  0.52328202  0.62187370  0.95863140  1
  Li  Li1019  1  0.72671798  0.12187370  0.79136860  1
  Li  Li1020  1  0.77328202  0.54136860  0.37187370  1
  Li  Li1021  1  0.97671798  0.70863140  0.87187370  1
  Li  Li1022  1  0.27328202  0.20863140  0.87812630  1
  Li  Li1023  1  0.47671798  0.04136860  0.37812630  1
  Li  Li1024  1  0.04136860  0.37812630  0.47671798  1
  Li  Li1025  1  0.20863140  0.87812630  0.27328202  1
  Li  Li1026  1  0.70863140  0.87187370  0.97671798  1
  Li  Li1027  1  0.54136860  0.37187370  0.77328202  1
  Li  Li1028  1  0.87812630  0.27328202  0.20863140  1
  Li  Li1029  1  0.37812630  0.47671798  0.04136860  1
  Li  Li1030  1  0.37187370  0.77328202  0.54136860  1
  Li  Li1031  1  0.87187370  0.97671798  0.70863140  1
  Li  Li1032  1  0.70863140  0.97671798  0.87187370  1
  Li  Li1033  1  0.54136860  0.77328202  0.37187370  1
  Li  Li1034  1  0.04136860  0.47671798  0.37812630  1
  Li  Li1035  1  0.20863140  0.27328202  0.87812630  1
  Li  Li1036  1  0.87187370  0.70863140  0.97671798  1
  Li  Li1037  1  0.37187370  0.54136860  0.77328202  1
  Li  Li1038  1  0.37812630  0.04136860  0.47671798  1
  Li  Li1039  1  0.87812630  0.20863140  0.27328202  1
  Li  Li1040  1  0.97671798  0.87187370  0.70863140  1
  Li  Li1041  1  0.77328202  0.37187370  0.54136860  1
  Li  Li1042  1  0.47671798  0.37812630  0.04136860  1
  Li  Li1043  1  0.27328202  0.87812630  0.20863140  1
  Li  Li1044  1  0.22671798  0.45863140  0.62812630  1
  Li  Li1045  1  0.02328202  0.29136860  0.12812630  1
  Li  Li1046  1  0.72671798  0.79136860  0.12187370  1
  Li  Li1047  1  0.52328202  0.95863140  0.62187370  1
  Li  Li1048  1  0.95863140  0.62187370  0.52328202  1
  Li  Li1049  1  0.79136860  0.12187370  0.72671798  1
  Li  Li1050  1  0.29136860  0.12812630  0.02328202  1
  Li  Li1051  1  0.45863140  0.62812630  0.22671798  1
  Li  Li1052  1  0.12187370  0.72671798  0.79136860  1
  Li  Li1053  1  0.62187370  0.52328202  0.95863140  1
  Li  Li1054  1  0.62812630  0.22671798  0.45863140  1
  Li  Li1055  1  0.12812630  0.02328202  0.29136860  1
  Li  Li1056  1  0.29136860  0.52328202  0.62812630  1
  Li  Li1057  1  0.45863140  0.72671798  0.12812630  1
  Li  Li1058  1  0.95863140  0.02328202  0.12187370  1
  Li  Li1059  1  0.79136860  0.22671798  0.62187370  1
  Li  Li1060  1  0.12812630  0.79136860  0.52328202  1
  Li  Li1061  1  0.62812630  0.95863140  0.72671798  1
  Li  Li1062  1  0.62187370  0.45863140  0.02328202  1
  Li  Li1063  1  0.12187370  0.29136860  0.22671798  1
  Li  Li1064  1  0.02328202  0.62812630  0.79136860  1
  Li  Li1065  1  0.22671798  0.12812630  0.95863140  1
  Li  Li1066  1  0.52328202  0.12187370  0.45863140  1
  Li  Li1067  1  0.72671798  0.62187370  0.29136860  1
  Li  Li1068  1  0.77328202  0.04136860  0.87187370  1
  Li  Li1069  1  0.97671798  0.20863140  0.37187370  1
  Li  Li1070  1  0.27328202  0.70863140  0.37812630  1
  Li  Li1071  1  0.47671798  0.54136860  0.87812630  1
  Li  Li1072  1  0.04136860  0.87812630  0.97671798  1
  Li  Li1073  1  0.20863140  0.37812630  0.77328202  1
  Li  Li1074  1  0.70863140  0.37187370  0.47671798  1
  Li  Li1075  1  0.54136860  0.87187370  0.27328202  1
  Li  Li1076  1  0.87812630  0.77328202  0.70863140  1
  Li  Li1077  1  0.37812630  0.97671798  0.54136860  1
  Li  Li1078  1  0.37187370  0.27328202  0.04136860  1
  Li  Li1079  1  0.87187370  0.47671798  0.20863140  1
  Li  Li1080  1  0.70863140  0.47671798  0.37187370  1
  Li  Li1081  1  0.54136860  0.27328202  0.87187370  1
  Li  Li1082  1  0.04136860  0.97671798  0.87812630  1
  Li  Li1083  1  0.20863140  0.77328202  0.37812630  1
  Li  Li1084  1  0.87187370  0.20863140  0.47671798  1
  Li  Li1085  1  0.37187370  0.04136860  0.27328202  1
  Li  Li1086  1  0.37812630  0.54136860  0.97671798  1
  Li  Li1087  1  0.87812630  0.70863140  0.77328202  1
  Li  Li1088  1  0.97671798  0.37187370  0.20863140  1
  Li  Li1089  1  0.77328202  0.87187370  0.04136860  1
  Li  Li1090  1  0.47671798  0.87812630  0.54136860  1
  Li  Li1091  1  0.27328202  0.37812630  0.70863140  1
  Li  Li1092  1  0.22671798  0.95863140  0.12812630  1
  Li  Li1093  1  0.02328202  0.79136860  0.62812630  1
  Li  Li1094  1  0.72671798  0.29136860  0.62187370  1
  Li  Li1095  1  0.52328202  0.45863140  0.12187370  1
  Li  Li1096  1  0.95863140  0.12187370  0.02328202  1
  Li  Li1097  1  0.79136860  0.62187370  0.22671798  1
  Li  Li1098  1  0.29136860  0.62812630  0.52328202  1
  Li  Li1099  1  0.45863140  0.12812630  0.72671798  1
  Li  Li1100  1  0.12187370  0.22671798  0.29136860  1
  Li  Li1101  1  0.62187370  0.02328202  0.45863140  1
  Li  Li1102  1  0.62812630  0.72671798  0.95863140  1
  Li  Li1103  1  0.12812630  0.52328202  0.79136860  1
  Li  Li1104  1  0.79136860  0.02328202  0.62812630  1
  Li  Li1105  1  0.95863140  0.22671798  0.12812630  1
  Li  Li1106  1  0.45863140  0.52328202  0.12187370  1
  Li  Li1107  1  0.29136860  0.72671798  0.62187370  1
  Li  Li1108  1  0.62812630  0.29136860  0.52328202  1
  Li  Li1109  1  0.12812630  0.45863140  0.72671798  1
  Li  Li1110  1  0.12187370  0.95863140  0.02328202  1
  Li  Li1111  1  0.62187370  0.79136860  0.22671798  1
  Li  Li1112  1  0.52328202  0.12812630  0.79136860  1
  Li  Li1113  1  0.72671798  0.62812630  0.95863140  1
  Li  Li1114  1  0.02328202  0.62187370  0.45863140  1
  Li  Li1115  1  0.22671798  0.12187370  0.29136860  1
  Li  Li1116  1  0.27328202  0.54136860  0.87187370  1
  Li  Li1117  1  0.47671798  0.70863140  0.37187370  1
  Li  Li1118  1  0.77328202  0.20863140  0.37812630  1
  Li  Li1119  1  0.97671798  0.04136860  0.87812630  1
  Li  Li1120  1  0.54136860  0.37812630  0.97671798  1
  Li  Li1121  1  0.70863140  0.87812630  0.77328202  1
  Li  Li1122  1  0.20863140  0.87187370  0.47671798  1
  Li  Li1123  1  0.04136860  0.37187370  0.27328202  1
  Li  Li1124  1  0.37812630  0.27328202  0.70863140  1
  Li  Li1125  1  0.87812630  0.47671798  0.54136860  1
  Li  Li1126  1  0.87187370  0.77328202  0.04136860  1
  Li  Li1127  1  0.37187370  0.97671798  0.20863140  1
  Li  Li1128  1  0.20863140  0.97671798  0.37187370  1
  Li  Li1129  1  0.04136860  0.77328202  0.87187370  1
  Li  Li1130  1  0.54136860  0.47671798  0.87812630  1
  Li  Li1131  1  0.70863140  0.27328202  0.37812630  1
  Li  Li1132  1  0.37187370  0.70863140  0.47671798  1
  Li  Li1133  1  0.87187370  0.54136860  0.27328202  1
  Li  Li1134  1  0.87812630  0.04136860  0.97671798  1
  Li  Li1135  1  0.37812630  0.20863140  0.77328202  1
  Li  Li1136  1  0.47671798  0.87187370  0.20863140  1
  Li  Li1137  1  0.27328202  0.37187370  0.04136860  1
  Li  Li1138  1  0.97671798  0.37812630  0.54136860  1
  Li  Li1139  1  0.77328202  0.87812630  0.70863140  1
  Li  Li1140  1  0.72671798  0.45863140  0.12812630  1
  Li  Li1141  1  0.52328202  0.29136860  0.62812630  1
  Li  Li1142  1  0.22671798  0.79136860  0.62187370  1
  Li  Li1143  1  0.02328202  0.95863140  0.12187370  1
  Li  Li1144  1  0.45863140  0.62187370  0.02328202  1
  Li  Li1145  1  0.29136860  0.12187370  0.22671798  1
  Li  Li1146  1  0.79136860  0.12812630  0.52328202  1
  Li  Li1147  1  0.95863140  0.62812630  0.72671798  1
  Li  Li1148  1  0.62187370  0.72671798  0.29136860  1
  Li  Li1149  1  0.12187370  0.52328202  0.45863140  1
  Li  Li1150  1  0.12812630  0.22671798  0.95863140  1
  Li  Li1151  1  0.62812630  0.02328202  0.79136860  1
  Li  Li1152  1  0.79136860  0.52328202  0.12812630  1
  Li  Li1153  1  0.95863140  0.72671798  0.62812630  1
  Li  Li1154  1  0.45863140  0.02328202  0.62187370  1
  Li  Li1155  1  0.29136860  0.22671798  0.12187370  1
  Li  Li1156  1  0.62812630  0.79136860  0.02328202  1
  Li  Li1157  1  0.12812630  0.95863140  0.22671798  1
  Li  Li1158  1  0.12187370  0.45863140  0.52328202  1
  Li  Li1159  1  0.62187370  0.29136860  0.72671798  1
  Li  Li1160  1  0.52328202  0.62812630  0.29136860  1
  Li  Li1161  1  0.72671798  0.12812630  0.45863140  1
  Li  Li1162  1  0.02328202  0.12187370  0.95863140  1
  Li  Li1163  1  0.22671798  0.62187370  0.79136860  1
  Li  Li1164  1  0.27328202  0.04136860  0.37187370  1
  Li  Li1165  1  0.47671798  0.20863140  0.87187370  1
  Li  Li1166  1  0.77328202  0.70863140  0.87812630  1
  Li  Li1167  1  0.97671798  0.54136860  0.37812630  1
  Li  Li1168  1  0.54136860  0.87812630  0.47671798  1
  Li  Li1169  1  0.70863140  0.37812630  0.27328202  1
  Li  Li1170  1  0.20863140  0.37187370  0.97671798  1
  Li  Li1171  1  0.04136860  0.87187370  0.77328202  1
  Li  Li1172  1  0.37812630  0.77328202  0.20863140  1
  Li  Li1173  1  0.87812630  0.97671798  0.04136860  1
  Li  Li1174  1  0.87187370  0.27328202  0.54136860  1
  Li  Li1175  1  0.37187370  0.47671798  0.70863140  1
  Li  Li1176  1  0.20863140  0.47671798  0.87187370  1
  Li  Li1177  1  0.04136860  0.27328202  0.37187370  1
  Li  Li1178  1  0.54136860  0.97671798  0.37812630  1
  Li  Li1179  1  0.70863140  0.77328202  0.87812630  1
  Li  Li1180  1  0.37187370  0.20863140  0.97671798  1
  Li  Li1181  1  0.87187370  0.04136860  0.77328202  1
  Li  Li1182  1  0.87812630  0.54136860  0.47671798  1
  Li  Li1183  1  0.37812630  0.70863140  0.27328202  1
  Li  Li1184  1  0.47671798  0.37187370  0.70863140  1
  Li  Li1185  1  0.27328202  0.87187370  0.54136860  1
  Li  Li1186  1  0.97671798  0.87812630  0.04136860  1
  Li  Li1187  1  0.77328202  0.37812630  0.20863140  1
  Li  Li1188  1  0.72671798  0.95863140  0.62812630  1
  Li  Li1189  1  0.52328202  0.79136860  0.12812630  1
  Li  Li1190  1  0.22671798  0.29136860  0.12187370  1
  Li  Li1191  1  0.02328202  0.45863140  0.62187370  1
  Li  Li1192  1  0.45863140  0.12187370  0.52328202  1
  Li  Li1193  1  0.29136860  0.62187370  0.72671798  1
  Li  Li1194  1  0.79136860  0.62812630  0.02328202  1
  Li  Li1195  1  0.95863140  0.12812630  0.22671798  1
  Li  Li1196  1  0.62187370  0.22671798  0.79136860  1
  Li  Li1197  1  0.12187370  0.02328202  0.95863140  1
  Li  Li1198  1  0.12812630  0.72671798  0.45863140  1
  Li  Li1199  1  0.62812630  0.52328202  0.29136860  1
  Li  Li1200  1  0.87879651  0.12500000  0.12500000  1
  Li  Li1201  1  0.87120349  0.12500000  0.62500000  1
  Li  Li1202  1  0.12500000  0.87879651  0.12500000  1
  Li  Li1203  1  0.62500000  0.87120349  0.12500000  1
  Li  Li1204  1  0.12500000  0.12500000  0.87879651  1
  Li  Li1205  1  0.12500000  0.62500000  0.87120349  1
  Li  Li1206  1  0.87500000  0.12879651  0.37500000  1
  Li  Li1207  1  0.87500000  0.12120349  0.87500000  1
  Li  Li1208  1  0.62879651  0.37500000  0.37500000  1
  Li  Li1209  1  0.62120349  0.87500000  0.37500000  1
  Li  Li1210  1  0.87500000  0.37500000  0.62120349  1
  Li  Li1211  1  0.37500000  0.37500000  0.62879651  1
  Li  Li1212  1  0.87879651  0.62500000  0.62500000  1
  Li  Li1213  1  0.87120349  0.62500000  0.12500000  1
  Li  Li1214  1  0.12500000  0.37879651  0.62500000  1
  Li  Li1215  1  0.62500000  0.37120349  0.62500000  1
  Li  Li1216  1  0.12500000  0.62500000  0.37879651  1
  Li  Li1217  1  0.12500000  0.12500000  0.37120349  1
  Li  Li1218  1  0.87500000  0.62879651  0.87500000  1
  Li  Li1219  1  0.87500000  0.62120349  0.37500000  1
  Li  Li1220  1  0.62879651  0.87500000  0.87500000  1
  Li  Li1221  1  0.62120349  0.37500000  0.87500000  1
  Li  Li1222  1  0.87500000  0.87500000  0.12120349  1
  Li  Li1223  1  0.37500000  0.87500000  0.12879651  1
  Li  Li1224  1  0.37879651  0.12500000  0.62500000  1
  Li  Li1225  1  0.37120349  0.12500000  0.12500000  1
  Li  Li1226  1  0.62500000  0.87879651  0.62500000  1
  Li  Li1227  1  0.12500000  0.87120349  0.62500000  1
  Li  Li1228  1  0.62500000  0.12500000  0.37879651  1
  Li  Li1229  1  0.62500000  0.62500000  0.37120349  1
  Li  Li1230  1  0.37500000  0.12879651  0.87500000  1
  Li  Li1231  1  0.37500000  0.12120349  0.37500000  1
  Li  Li1232  1  0.12879651  0.37500000  0.87500000  1
  Li  Li1233  1  0.12120349  0.87500000  0.87500000  1
  Li  Li1234  1  0.37500000  0.37500000  0.12120349  1
  Li  Li1235  1  0.87500000  0.37500000  0.12879651  1
  Li  Li1236  1  0.37879651  0.62500000  0.12500000  1
  Li  Li1237  1  0.37120349  0.62500000  0.62500000  1
  Li  Li1238  1  0.62500000  0.37879651  0.12500000  1
  Li  Li1239  1  0.12500000  0.37120349  0.12500000  1
  Li  Li1240  1  0.62500000  0.62500000  0.87879651  1
  Li  Li1241  1  0.62500000  0.12500000  0.87120349  1
  Li  Li1242  1  0.37500000  0.62879651  0.37500000  1
  Li  Li1243  1  0.37500000  0.62120349  0.87500000  1
  Li  Li1244  1  0.12879651  0.87500000  0.37500000  1
  Li  Li1245  1  0.12120349  0.37500000  0.37500000  1
  Li  Li1246  1  0.37500000  0.87500000  0.62120349  1
  Li  Li1247  1  0.87500000  0.87500000  0.62879651  1
  S  S1248  1  0.00000000  0.81996517  0.18003483  1
  S  S1249  1  0.75000000  0.43003483  0.68003483  1
  S  S1250  1  0.25000000  0.31996517  0.56996517  1
  S  S1251  1  0.50000000  0.93003483  0.06996517  1
  S  S1252  1  0.18003483  0.00000000  0.81996517  1
  S  S1253  1  0.68003483  0.75000000  0.43003483  1
  S  S1254  1  0.56996517  0.25000000  0.31996517  1
  S  S1255  1  0.06996517  0.50000000  0.93003483  1
  S  S1256  1  0.81996517  0.18003483  -0.00000000  1
  S  S1257  1  0.43003483  0.68003483  0.75000000  1
  S  S1258  1  0.31996517  0.56996517  0.25000000  1
  S  S1259  1  0.93003483  0.06996517  0.50000000  1
  S  S1260  1  0.00000000  0.18003483  0.81996517  1
  S  S1261  1  0.25000000  0.56996517  0.31996517  1
  S  S1262  1  0.75000000  0.68003483  0.43003483  1
  S  S1263  1  0.50000000  0.06996517  0.93003483  1
  S  S1264  1  0.81996517  0.00000000  0.18003483  1
  S  S1265  1  0.31996517  0.25000000  0.56996517  1
  S  S1266  1  0.43003483  0.75000000  0.68003483  1
  S  S1267  1  0.93003483  0.50000000  0.06996517  1
  S  S1268  1  0.18003483  0.81996517  0.00000000  1
  S  S1269  1  0.56996517  0.31996517  0.25000000  1
  S  S1270  1  0.68003483  0.43003483  0.75000000  1
  S  S1271  1  0.06996517  0.93003483  0.50000000  1
  S  S1272  1  0.00000000  0.31996517  0.68003483  1
  S  S1273  1  0.75000000  0.93003483  0.18003483  1
  S  S1274  1  0.25000000  0.81996517  0.06996517  1
  S  S1275  1  0.50000000  0.43003483  0.56996517  1
  S  S1276  1  0.18003483  0.50000000  0.31996517  1
  S  S1277  1  0.68003483  0.25000000  0.93003483  1
  S  S1278  1  0.56996517  0.75000000  0.81996517  1
  S  S1279  1  0.06996517  0.00000000  0.43003483  1
  S  S1280  1  0.81996517  0.68003483  0.50000000  1
  S  S1281  1  0.43003483  0.18003483  0.25000000  1
  S  S1282  1  0.31996517  0.06996517  0.75000000  1
  S  S1283  1  0.93003483  0.56996517  0.00000000  1
  S  S1284  1  0.00000000  0.68003483  0.31996517  1
  S  S1285  1  0.25000000  0.06996517  0.81996517  1
  S  S1286  1  0.75000000  0.18003483  0.93003483  1
  S  S1287  1  0.50000000  0.56996517  0.43003483  1
  S  S1288  1  0.81996517  0.50000000  0.68003483  1
  S  S1289  1  0.31996517  0.75000000  0.06996517  1
  S  S1290  1  0.43003483  0.25000000  0.18003483  1
  S  S1291  1  0.93003483  0.00000000  0.56996517  1
  S  S1292  1  0.18003483  0.31996517  0.50000000  1
  S  S1293  1  0.56996517  0.81996517  0.75000000  1
  S  S1294  1  0.68003483  0.93003483  0.25000000  1
  S  S1295  1  0.06996517  0.43003483  0.00000000  1
  S  S1296  1  0.50000000  0.81996517  0.68003483  1
  S  S1297  1  0.25000000  0.43003483  0.18003483  1
  S  S1298  1  0.75000000  0.31996517  0.06996517  1
  S  S1299  1  0.00000000  0.93003483  0.56996517  1
  S  S1300  1  0.68003483  0.00000000  0.31996517  1
  S  S1301  1  0.18003483  0.75000000  0.93003483  1
  S  S1302  1  0.06996517  0.25000000  0.81996517  1
  S  S1303  1  0.56996517  0.50000000  0.43003483  1
  S  S1304  1  0.31996517  0.18003483  0.50000000  1
  S  S1305  1  0.93003483  0.68003483  0.25000000  1
  S  S1306  1  0.81996517  0.56996517  0.75000000  1
  S  S1307  1  0.43003483  0.06996517  0.00000000  1
  S  S1308  1  0.50000000  0.18003483  0.31996517  1
  S  S1309  1  0.75000000  0.56996517  0.81996517  1
  S  S1310  1  0.25000000  0.68003483  0.93003483  1
  S  S1311  1  0.00000000  0.06996517  0.43003483  1
  S  S1312  1  0.31996517  -0.00000000  0.68003483  1
  S  S1313  1  0.81996517  0.25000000  0.06996517  1
  S  S1314  1  0.93003483  0.75000000  0.18003483  1
  S  S1315  1  0.43003483  0.50000000  0.56996517  1
  S  S1316  1  0.68003483  0.81996517  0.50000000  1
  S  S1317  1  0.06996517  0.31996517  0.75000000  1
  S  S1318  1  0.18003483  0.43003483  0.25000000  1
  S  S1319  1  0.56996517  0.93003483  0.00000000  1
  S  S1320  1  0.50000000  0.31996517  0.18003483  1
  S  S1321  1  0.25000000  0.93003483  0.68003483  1
  S  S1322  1  0.75000000  0.81996517  0.56996517  1
  S  S1323  1  0.00000000  0.43003483  0.06996517  1
  S  S1324  1  0.68003483  0.50000000  0.81996517  1
  S  S1325  1  0.18003483  0.25000000  0.43003483  1
  S  S1326  1  0.06996517  0.75000000  0.31996517  1
  S  S1327  1  0.56996517  0.00000000  0.93003483  1
  S  S1328  1  0.31996517  0.68003483  -0.00000000  1
  S  S1329  1  0.93003483  0.18003483  0.75000000  1
  S  S1330  1  0.81996517  0.06996517  0.25000000  1
  S  S1331  1  0.43003483  0.56996517  0.50000000  1
  S  S1332  1  0.50000000  0.68003483  0.81996517  1
  S  S1333  1  0.75000000  0.06996517  0.31996517  1
  S  S1334  1  0.25000000  0.18003483  0.43003483  1
  S  S1335  1  0.00000000  0.56996517  0.93003483  1
  S  S1336  1  0.31996517  0.50000000  0.18003483  1
  S  S1337  1  0.81996517  0.75000000  0.56996517  1
  S  S1338  1  0.93003483  0.25000000  0.68003483  1
  S  S1339  1  0.43003483  0.00000000  0.06996517  1
  S  S1340  1  0.68003483  0.31996517  -0.00000000  1
  S  S1341  1  0.06996517  0.81996517  0.25000000  1
  S  S1342  1  0.18003483  0.93003483  0.75000000  1
  S  S1343  1  0.56996517  0.43003483  0.50000000  1
