# generated using pymatgen
data_K2SiSb8(BrF4)6
_symmetry_space_group_name_H-M   'P 1'
_cell_length_a   24.26829693
_cell_length_b   24.26829693
_cell_length_c   24.26829693
_cell_angle_alpha   90.00000000
_cell_angle_beta   90.00000000
_cell_angle_gamma   90.00000000
_symmetry_Int_Tables_number   1
_chemical_formula_structural   K2SiSb8(BrF4)6
_chemical_formula_sum   'K48 Si24 Sb192 Br144 F576'
_cell_volume   14292.81920557
_cell_formula_units_Z   24
loop_
 _symmetry_equiv_pos_site_id
 _symmetry_equiv_pos_as_xyz
  1  'x, y, z'
loop_
 _atom_site_type_symbol
 _atom_site_label
 _atom_site_symmetry_multiplicity
 _atom_site_fract_x
 _atom_site_fract_y
 _atom_site_fract_z
 _atom_site_occupancy
  Br  Br0  1  0.99872717  0.12500000  0.12500000  1
  Br  Br1  1  0.75127283  0.12500000  0.62500000  1
  Br  Br2  1  0.12500000  0.99872717  0.12500000  1
  Br  Br3  1  0.62500000  0.75127283  0.12500000  1
  Br  Br4  1  0.12500000  0.12500000  0.99872717  1
  Br  Br5  1  0.12500000  0.62500000  0.75127283  1
  Br  Br6  1  0.87500000  0.24872717  0.37500000  1
  Br  Br7  1  0.87500000  0.00127283  0.87500000  1
  Br  Br8  1  0.74872717  0.37500000  0.37500000  1
  Br  Br9  1  0.50127283  0.87500000  0.37500000  1
  Br  Br10  1  0.87500000  0.37500000  0.50127283  1
  Br  Br11  1  0.37500000  0.37500000  0.74872717  1
  Br  Br12  1  0.99872717  0.62500000  0.62500000  1
  Br  Br13  1  0.75127283  0.62500000  0.12500000  1
  Br  Br14  1  0.12500000  0.49872717  0.62500000  1
  Br  Br15  1  0.62500000  0.25127283  0.62500000  1
  Br  Br16  1  0.12500000  0.62500000  0.49872717  1
  Br  Br17  1  0.12500000  0.12500000  0.25127283  1
  Br  Br18  1  0.87500000  0.74872717  0.87500000  1
  Br  Br19  1  0.87500000  0.50127283  0.37500000  1
  Br  Br20  1  0.74872717  0.87500000  0.87500000  1
  Br  Br21  1  0.50127283  0.37500000  0.87500000  1
  Br  Br22  1  0.87500000  0.87500000  0.00127283  1
  Br  Br23  1  0.37500000  0.87500000  0.24872717  1
  Br  Br24  1  0.49872717  0.12500000  0.62500000  1
  Br  Br25  1  0.25127283  0.12500000  0.12500000  1
  Br  Br26  1  0.62500000  0.99872717  0.62500000  1
  Br  Br27  1  0.12500000  0.75127283  0.62500000  1
  Br  Br28  1  0.62500000  0.12500000  0.49872717  1
  Br  Br29  1  0.62500000  0.62500000  0.25127283  1
  Br  Br30  1  0.37500000  0.24872717  0.87500000  1
  Br  Br31  1  0.37500000  0.00127283  0.37500000  1
  Br  Br32  1  0.24872717  0.37500000  0.87500000  1
  Br  Br33  1  0.00127283  0.87500000  0.87500000  1
  Br  Br34  1  0.37500000  0.37500000  0.00127283  1
  Br  Br35  1  0.87500000  0.37500000  0.24872717  1
  Br  Br36  1  0.49872717  0.62500000  0.12500000  1
  Br  Br37  1  0.25127283  0.62500000  0.62500000  1
  Br  Br38  1  0.62500000  0.49872717  0.12500000  1
  Br  Br39  1  0.12500000  0.25127283  0.12500000  1
  Br  Br40  1  0.62500000  0.62500000  0.99872717  1
  Br  Br41  1  0.62500000  0.12500000  0.75127283  1
  Br  Br42  1  0.37500000  0.74872717  0.37500000  1
  Br  Br43  1  0.37500000  0.50127283  0.87500000  1
  Br  Br44  1  0.24872717  0.87500000  0.37500000  1
  Br  Br45  1  0.00127283  0.37500000  0.37500000  1
  Br  Br46  1  0.37500000  0.87500000  0.50127283  1
  Br  Br47  1  0.87500000  0.87500000  0.74872717  1
  Br  Br48  1  0.00000000  0.95315785  0.04684215  1
  Br  Br49  1  0.75000000  0.29684215  0.54684215  1
  Br  Br50  1  0.25000000  0.45315785  0.70315785  1
  Br  Br51  1  0.50000000  0.79684215  0.20315785  1
  Br  Br52  1  0.04684215  0.00000000  0.95315785  1
  Br  Br53  1  0.54684215  0.75000000  0.29684215  1
  Br  Br54  1  0.70315785  0.25000000  0.45315785  1
  Br  Br55  1  0.20315785  0.50000000  0.79684215  1
  Br  Br56  1  0.95315785  0.04684215  0.00000000  1
  Br  Br57  1  0.29684215  0.54684215  0.75000000  1
  Br  Br58  1  0.45315785  0.70315785  0.25000000  1
  Br  Br59  1  0.79684215  0.20315785  0.50000000  1
  Br  Br60  1  0.00000000  0.04684215  0.95315785  1
  Br  Br61  1  0.25000000  0.70315785  0.45315785  1
  Br  Br62  1  0.75000000  0.54684215  0.29684215  1
  Br  Br63  1  0.50000000  0.20315785  0.79684215  1
  Br  Br64  1  0.95315785  0.00000000  0.04684215  1
  Br  Br65  1  0.45315785  0.25000000  0.70315785  1
  Br  Br66  1  0.29684215  0.75000000  0.54684215  1
  Br  Br67  1  0.79684215  0.50000000  0.20315785  1
  Br  Br68  1  0.04684215  0.95315785  0.00000000  1
  Br  Br69  1  0.70315785  0.45315785  0.25000000  1
  Br  Br70  1  0.54684215  0.29684215  0.75000000  1
  Br  Br71  1  0.20315785  0.79684215  0.50000000  1
  Br  Br72  1  0.00000000  0.45315785  0.54684215  1
  Br  Br73  1  0.75000000  0.79684215  0.04684215  1
  Br  Br74  1  0.25000000  0.95315785  0.20315785  1
  Br  Br75  1  0.50000000  0.29684215  0.70315785  1
  Br  Br76  1  0.04684215  0.50000000  0.45315785  1
  Br  Br77  1  0.54684215  0.25000000  0.79684215  1
  Br  Br78  1  0.70315785  0.75000000  0.95315785  1
  Br  Br79  1  0.20315785  0.00000000  0.29684215  1
  Br  Br80  1  0.95315785  0.54684215  0.50000000  1
  Br  Br81  1  0.29684215  0.04684215  0.25000000  1
  Br  Br82  1  0.45315785  0.20315785  0.75000000  1
  Br  Br83  1  0.79684215  0.70315785  0.00000000  1
  Br  Br84  1  0.00000000  0.54684215  0.45315785  1
  Br  Br85  1  0.25000000  0.20315785  0.95315785  1
  Br  Br86  1  0.75000000  0.04684215  0.79684215  1
  Br  Br87  1  0.50000000  0.70315785  0.29684215  1
  Br  Br88  1  0.95315785  0.50000000  0.54684215  1
  Br  Br89  1  0.45315785  0.75000000  0.20315785  1
  Br  Br90  1  0.29684215  0.25000000  0.04684215  1
  Br  Br91  1  0.79684215  0.00000000  0.70315785  1
  Br  Br92  1  0.04684215  0.45315785  0.50000000  1
  Br  Br93  1  0.70315785  0.95315785  0.75000000  1
  Br  Br94  1  0.54684215  0.79684215  0.25000000  1
  Br  Br95  1  0.20315785  0.29684215  0.00000000  1
  Br  Br96  1  0.50000000  0.95315785  0.54684215  1
  Br  Br97  1  0.25000000  0.29684215  0.04684215  1
  Br  Br98  1  0.75000000  0.45315785  0.20315785  1
  Br  Br99  1  0.00000000  0.79684215  0.70315785  1
  Br  Br100  1  0.54684215  0.00000000  0.45315785  1
  Br  Br101  1  0.04684215  0.75000000  0.79684215  1
  Br  Br102  1  0.20315785  0.25000000  0.95315785  1
  Br  Br103  1  0.70315785  0.50000000  0.29684215  1
  Br  Br104  1  0.45315785  0.04684215  0.50000000  1
  Br  Br105  1  0.79684215  0.54684215  0.25000000  1
  Br  Br106  1  0.95315785  0.70315785  0.75000000  1
  Br  Br107  1  0.29684215  0.20315785  0.00000000  1
  Br  Br108  1  0.50000000  0.04684215  0.45315785  1
  Br  Br109  1  0.75000000  0.70315785  0.95315785  1
  Br  Br110  1  0.25000000  0.54684215  0.79684215  1
  Br  Br111  1  0.00000000  0.20315785  0.29684215  1
  Br  Br112  1  0.45315785  0.00000000  0.54684215  1
  Br  Br113  1  0.95315785  0.25000000  0.20315785  1
  Br  Br114  1  0.79684215  0.75000000  0.04684215  1
  Br  Br115  1  0.29684215  0.50000000  0.70315785  1
  Br  Br116  1  0.54684215  0.95315785  0.50000000  1
  Br  Br117  1  0.20315785  0.45315785  0.75000000  1
  Br  Br118  1  0.04684215  0.29684215  0.25000000  1
  Br  Br119  1  0.70315785  0.79684215  0.00000000  1
  Br  Br120  1  0.50000000  0.45315785  0.04684215  1
  Br  Br121  1  0.25000000  0.79684215  0.54684215  1
  Br  Br122  1  0.75000000  0.95315785  0.70315785  1
  Br  Br123  1  0.00000000  0.29684215  0.20315785  1
  Br  Br124  1  0.54684215  0.50000000  0.95315785  1
  Br  Br125  1  0.04684215  0.25000000  0.29684215  1
  Br  Br126  1  0.20315785  0.75000000  0.45315785  1
  Br  Br127  1  0.70315785  -0.00000000  0.79684215  1
  Br  Br128  1  0.45315785  0.54684215  0.00000000  1
  Br  Br129  1  0.79684215  0.04684215  0.75000000  1
  Br  Br130  1  0.95315785  0.20315785  0.25000000  1
  Br  Br131  1  0.29684215  0.70315785  0.50000000  1
  Br  Br132  1  0.50000000  0.54684215  0.95315785  1
  Br  Br133  1  0.75000000  0.20315785  0.45315785  1
  Br  Br134  1  0.25000000  0.04684215  0.29684215  1
  Br  Br135  1  0.00000000  0.70315785  0.79684215  1
  Br  Br136  1  0.45315785  0.50000000  0.04684215  1
  Br  Br137  1  0.95315785  0.75000000  0.70315785  1
  Br  Br138  1  0.79684215  0.25000000  0.54684215  1
  Br  Br139  1  0.29684215  0.00000000  0.20315785  1
  Br  Br140  1  0.54684215  0.45315785  0.00000000  1
  Br  Br141  1  0.20315785  0.95315785  0.25000000  1
  Br  Br142  1  0.04684215  0.79684215  0.75000000  1
  Br  Br143  1  0.70315785  0.29684215  0.50000000  1
  F  F144  1  0.88735150  0.91235100  0.68435830  1
  F  F145  1  0.86264850  0.33764900  0.18435830  1
  F  F146  1  0.36264850  0.41235100  0.06564170  1
  F  F147  1  0.38735150  0.83764900  0.56564170  1
  F  F148  1  0.68435830  0.88735150  0.91235100  1
  F  F149  1  0.18435830  0.86264850  0.33764900  1
  F  F150  1  0.06564170  0.36264850  0.41235100  1
  F  F151  1  0.56564170  0.38735150  0.83764900  1
  F  F152  1  0.91235100  0.68435830  0.88735150  1
  F  F153  1  0.33764900  0.18435830  0.86264850  1
  F  F154  1  0.41235100  0.06564170  0.36264850  1
  F  F155  1  0.83764900  0.56564170  0.38735150  1
  F  F156  1  0.66235100  0.13735150  0.81564170  1
  F  F157  1  0.08764900  0.11264850  0.31564170  1
  F  F158  1  0.16235100  0.61264850  0.43435830  1
  F  F159  1  0.58764900  0.63735150  0.93435830  1
  F  F160  1  0.63735150  0.93435830  0.58764900  1
  F  F161  1  0.61264850  0.43435830  0.16235100  1
  F  F162  1  0.11264850  0.31564170  0.08764900  1
  F  F163  1  0.13735150  0.81564170  0.66235100  1
  F  F164  1  0.43435830  0.16235100  0.61264850  1
  F  F165  1  0.93435830  0.58764900  0.63735150  1
  F  F166  1  0.81564170  0.66235100  0.13735150  1
  F  F167  1  0.31564170  0.08764900  0.11264850  1
  F  F168  1  0.11264850  0.08764900  0.31564170  1
  F  F169  1  0.13735150  0.66235100  0.81564170  1
  F  F170  1  0.63735150  0.58764900  0.93435830  1
  F  F171  1  0.61264850  0.16235100  0.43435830  1
  F  F172  1  0.31564170  0.11264850  0.08764900  1
  F  F173  1  0.81564170  0.13735150  0.66235100  1
  F  F174  1  0.93435830  0.63735150  0.58764900  1
  F  F175  1  0.43435830  0.61264850  0.16235100  1
  F  F176  1  0.08764900  0.31564170  0.11264850  1
  F  F177  1  0.66235100  0.81564170  0.13735150  1
  F  F178  1  0.58764900  0.93435830  0.63735150  1
  F  F179  1  0.16235100  0.43435830  0.61264850  1
  F  F180  1  0.33764900  0.86264850  0.18435830  1
  F  F181  1  0.91235100  0.88735150  0.68435830  1
  F  F182  1  0.83764900  0.38735150  0.56564170  1
  F  F183  1  0.41235100  0.36264850  0.06564170  1
  F  F184  1  0.36264850  0.06564170  0.41235100  1
  F  F185  1  0.38735150  0.56564170  0.83764900  1
  F  F186  1  0.88735150  0.68435830  0.91235100  1
  F  F187  1  0.86264850  0.18435830  0.33764900  1
  F  F188  1  0.56564170  0.83764900  0.38735150  1
  F  F189  1  0.06564170  0.41235100  0.36264850  1
  F  F190  1  0.18435830  0.33764900  0.86264850  1
  F  F191  1  0.68435830  0.91235100  0.88735150  1
  F  F192  1  0.88735150  0.41235100  0.18435830  1
  F  F193  1  0.86264850  0.83764900  0.68435830  1
  F  F194  1  0.36264850  0.91235100  0.56564170  1
  F  F195  1  0.38735150  0.33764900  0.06564170  1
  F  F196  1  0.68435830  0.38735150  0.41235100  1
  F  F197  1  0.18435830  0.36264850  0.83764900  1
  F  F198  1  0.06564170  0.86264850  0.91235100  1
  F  F199  1  0.56564170  0.88735150  0.33764900  1
  F  F200  1  0.91235100  0.18435830  0.38735150  1
  F  F201  1  0.33764900  0.68435830  0.36264850  1
  F  F202  1  0.41235100  0.56564170  0.86264850  1
  F  F203  1  0.83764900  0.06564170  0.88735150  1
  F  F204  1  0.66235100  0.63735150  0.31564170  1
  F  F205  1  0.08764900  0.61264850  0.81564170  1
  F  F206  1  0.16235100  0.11264850  0.93435830  1
  F  F207  1  0.58764900  0.13735150  0.43435830  1
  F  F208  1  0.63735150  0.43435830  0.08764900  1
  F  F209  1  0.61264850  0.93435830  0.66235100  1
  F  F210  1  0.11264850  0.81564170  0.58764900  1
  F  F211  1  0.13735150  0.31564170  0.16235100  1
  F  F212  1  0.43435830  0.66235100  0.11264850  1
  F  F213  1  0.93435830  0.08764900  0.13735150  1
  F  F214  1  0.81564170  0.16235100  0.63735150  1
  F  F215  1  0.31564170  0.58764900  0.61264850  1
  F  F216  1  0.11264850  0.58764900  0.81564170  1
  F  F217  1  0.13735150  0.16235100  0.31564170  1
  F  F218  1  0.63735150  0.08764900  0.43435830  1
  F  F219  1  0.61264850  0.66235100  0.93435830  1
  F  F220  1  0.31564170  0.61264850  0.58764900  1
  F  F221  1  0.81564170  0.63735150  0.16235100  1
  F  F222  1  0.93435830  0.13735150  0.08764900  1
  F  F223  1  0.43435830  0.11264850  0.66235100  1
  F  F224  1  0.08764900  0.81564170  0.61264850  1
  F  F225  1  0.66235100  0.31564170  0.63735150  1
  F  F226  1  0.58764900  0.43435830  0.13735150  1
  F  F227  1  0.16235100  0.93435830  0.11264850  1
  F  F228  1  0.33764900  0.36264850  0.68435830  1
  F  F229  1  0.91235100  0.38735150  0.18435830  1
  F  F230  1  0.83764900  0.88735150  0.06564170  1
  F  F231  1  0.41235100  0.86264850  0.56564170  1
  F  F232  1  0.36264850  0.56564170  0.91235100  1
  F  F233  1  0.38735150  0.06564170  0.33764900  1
  F  F234  1  0.88735150  0.18435830  0.41235100  1
  F  F235  1  0.86264850  0.68435830  0.83764900  1
  F  F236  1  0.56564170  0.33764900  0.88735150  1
  F  F237  1  0.06564170  0.91235100  0.86264850  1
  F  F238  1  0.18435830  0.83764900  0.36264850  1
  F  F239  1  0.68435830  0.41235100  0.38735150  1
  F  F240  1  0.38735150  0.91235100  0.18435830  1
  F  F241  1  0.36264850  0.33764900  0.68435830  1
  F  F242  1  0.86264850  0.41235100  0.56564170  1
  F  F243  1  0.88735150  0.83764900  0.06564170  1
  F  F244  1  0.18435830  0.88735150  0.41235100  1
  F  F245  1  0.68435830  0.86264850  0.83764900  1
  F  F246  1  0.56564170  0.36264850  0.91235100  1
  F  F247  1  0.06564170  0.38735150  0.33764900  1
  F  F248  1  0.41235100  0.68435830  0.38735150  1
  F  F249  1  0.83764900  0.18435830  0.36264850  1
  F  F250  1  0.91235100  0.06564170  0.86264850  1
  F  F251  1  0.33764900  0.56564170  0.88735150  1
  F  F252  1  0.16235100  0.13735150  0.31564170  1
  F  F253  1  0.58764900  0.11264850  0.81564170  1
  F  F254  1  0.66235100  0.61264850  0.93435830  1
  F  F255  1  0.08764900  0.63735150  0.43435830  1
  F  F256  1  0.13735150  0.93435830  0.08764900  1
  F  F257  1  0.11264850  0.43435830  0.66235100  1
  F  F258  1  0.61264850  0.31564170  0.58764900  1
  F  F259  1  0.63735150  0.81564170  0.16235100  1
  F  F260  1  0.93435830  0.16235100  0.11264850  1
  F  F261  1  0.43435830  0.58764900  0.13735150  1
  F  F262  1  0.31564170  0.66235100  0.63735150  1
  F  F263  1  0.81564170  0.08764900  0.61264850  1
  F  F264  1  0.61264850  0.08764900  0.81564170  1
  F  F265  1  0.63735150  0.66235100  0.31564170  1
  F  F266  1  0.13735150  0.58764900  0.43435830  1
  F  F267  1  0.11264850  0.16235100  0.93435830  1
  F  F268  1  0.81564170  0.11264850  0.58764900  1
  F  F269  1  0.31564170  0.13735150  0.16235100  1
  F  F270  1  0.43435830  0.63735150  0.08764900  1
  F  F271  1  0.93435830  0.61264850  0.66235100  1
  F  F272  1  0.58764900  0.31564170  0.61264850  1
  F  F273  1  0.16235100  0.81564170  0.63735150  1
  F  F274  1  0.08764900  0.93435830  0.13735150  1
  F  F275  1  0.66235100  0.43435830  0.11264850  1
  F  F276  1  0.83764900  0.86264850  0.68435830  1
  F  F277  1  0.41235100  0.88735150  0.18435830  1
  F  F278  1  0.33764900  0.38735150  0.06564170  1
  F  F279  1  0.91235100  0.36264850  0.56564170  1
  F  F280  1  0.86264850  0.06564170  0.91235100  1
  F  F281  1  0.88735150  0.56564170  0.33764900  1
  F  F282  1  0.38735150  0.68435830  0.41235100  1
  F  F283  1  0.36264850  0.18435830  0.83764900  1
  F  F284  1  0.06564170  0.83764900  0.88735150  1
  F  F285  1  0.56564170  0.41235100  0.86264850  1
  F  F286  1  0.68435830  0.33764900  0.36264850  1
  F  F287  1  0.18435830  0.91235100  0.38735150  1
  F  F288  1  0.38735150  0.41235100  0.68435830  1
  F  F289  1  0.36264850  0.83764900  0.18435830  1
  F  F290  1  0.86264850  0.91235100  0.06564170  1
  F  F291  1  0.88735150  0.33764900  0.56564170  1
  F  F292  1  0.18435830  0.38735150  0.91235100  1
  F  F293  1  0.68435830  0.36264850  0.33764900  1
  F  F294  1  0.56564170  0.86264850  0.41235100  1
  F  F295  1  0.06564170  0.88735150  0.83764900  1
  F  F296  1  0.41235100  0.18435830  0.88735150  1
  F  F297  1  0.83764900  0.68435830  0.86264850  1
  F  F298  1  0.91235100  0.56564170  0.36264850  1
  F  F299  1  0.33764900  0.06564170  0.38735150  1
  F  F300  1  0.16235100  0.63735150  0.81564170  1
  F  F301  1  0.58764900  0.61264850  0.31564170  1
  F  F302  1  0.66235100  0.11264850  0.43435830  1
  F  F303  1  0.08764900  0.13735150  0.93435830  1
  F  F304  1  0.13735150  0.43435830  0.58764900  1
  F  F305  1  0.11264850  0.93435830  0.16235100  1
  F  F306  1  0.61264850  0.81564170  0.08764900  1
  F  F307  1  0.63735150  0.31564170  0.66235100  1
  F  F308  1  0.93435830  0.66235100  0.61264850  1
  F  F309  1  0.43435830  0.08764900  0.63735150  1
  F  F310  1  0.31564170  0.16235100  0.13735150  1
  F  F311  1  0.81564170  0.58764900  0.11264850  1
  F  F312  1  0.61264850  0.58764900  0.31564170  1
  F  F313  1  0.63735150  0.16235100  0.81564170  1
  F  F314  1  0.13735150  0.08764900  0.93435830  1
  F  F315  1  0.11264850  0.66235100  0.43435830  1
  F  F316  1  0.81564170  0.61264850  0.08764900  1
  F  F317  1  0.31564170  0.63735150  0.66235100  1
  F  F318  1  0.43435830  0.13735150  0.58764900  1
  F  F319  1  0.93435830  0.11264850  0.16235100  1
  F  F320  1  0.58764900  0.81564170  0.11264850  1
  F  F321  1  0.16235100  0.31564170  0.13735150  1
  F  F322  1  0.08764900  0.43435830  0.63735150  1
  F  F323  1  0.66235100  0.93435830  0.61264850  1
  F  F324  1  0.83764900  0.36264850  0.18435830  1
  F  F325  1  0.41235100  0.38735150  0.68435830  1
  F  F326  1  0.33764900  0.88735150  0.56564170  1
  F  F327  1  0.91235100  0.86264850  0.06564170  1
  F  F328  1  0.86264850  0.56564170  0.41235100  1
  F  F329  1  0.88735150  0.06564170  0.83764900  1
  F  F330  1  0.38735150  0.18435830  0.91235100  1
  F  F331  1  0.36264850  0.68435830  0.33764900  1
  F  F332  1  0.06564170  0.33764900  0.38735150  1
  F  F333  1  0.56564170  0.91235100  0.36264850  1
  F  F334  1  0.68435830  0.83764900  0.86264850  1
  F  F335  1  0.18435830  0.41235100  0.88735150  1
  F  F336  1  0.17140938  0.12500000  0.12500000  1
  F  F337  1  0.57859062  0.12500000  0.62500000  1
  F  F338  1  0.12500000  0.17140938  0.12500000  1
  F  F339  1  0.62500000  0.57859062  0.12500000  1
  F  F340  1  0.12500000  0.12500000  0.17140938  1
  F  F341  1  0.12500000  0.62500000  0.57859062  1
  F  F342  1  0.87500000  0.42140938  0.37500000  1
  F  F343  1  0.87500000  0.82859062  0.87500000  1
  F  F344  1  0.92140938  0.37500000  0.37500000  1
  F  F345  1  0.32859062  0.87500000  0.37500000  1
  F  F346  1  0.87500000  0.37500000  0.32859062  1
  F  F347  1  0.37500000  0.37500000  0.92140938  1
  F  F348  1  0.17140938  0.62500000  0.62500000  1
  F  F349  1  0.57859062  0.62500000  0.12500000  1
  F  F350  1  0.12500000  0.67140938  0.62500000  1
  F  F351  1  0.62500000  0.07859062  0.62500000  1
  F  F352  1  0.12500000  0.62500000  0.67140938  1
  F  F353  1  0.12500000  0.12500000  0.07859062  1
  F  F354  1  0.87500000  0.92140938  0.87500000  1
  F  F355  1  0.87500000  0.32859062  0.37500000  1
  F  F356  1  0.92140938  0.87500000  0.87500000  1
  F  F357  1  0.32859062  0.37500000  0.87500000  1
  F  F358  1  0.87500000  0.87500000  0.82859062  1
  F  F359  1  0.37500000  0.87500000  0.42140938  1
  F  F360  1  0.67140938  0.12500000  0.62500000  1
  F  F361  1  0.07859062  0.12500000  0.12500000  1
  F  F362  1  0.62500000  0.17140938  0.62500000  1
  F  F363  1  0.12500000  0.57859062  0.62500000  1
  F  F364  1  0.62500000  0.12500000  0.67140938  1
  F  F365  1  0.62500000  0.62500000  0.07859062  1
  F  F366  1  0.37500000  0.42140938  0.87500000  1
  F  F367  1  0.37500000  0.82859062  0.37500000  1
  F  F368  1  0.42140938  0.37500000  0.87500000  1
  F  F369  1  0.82859062  0.87500000  0.87500000  1
  F  F370  1  0.37500000  0.37500000  0.82859062  1
  F  F371  1  0.87500000  0.37500000  0.42140938  1
  F  F372  1  0.67140938  0.62500000  0.12500000  1
  F  F373  1  0.07859062  0.62500000  0.62500000  1
  F  F374  1  0.62500000  0.67140938  0.12500000  1
  F  F375  1  0.12500000  0.07859062  0.12500000  1
  F  F376  1  0.62500000  0.62500000  0.17140938  1
  F  F377  1  0.62500000  0.12500000  0.57859062  1
  F  F378  1  0.37500000  0.92140938  0.37500000  1
  F  F379  1  0.37500000  0.32859062  0.87500000  1
  F  F380  1  0.42140938  0.87500000  0.37500000  1
  F  F381  1  0.82859062  0.37500000  0.37500000  1
  F  F382  1  0.37500000  0.87500000  0.32859062  1
  F  F383  1  0.87500000  0.87500000  0.92140938  1
  F  F384  1  0.50000000  0.50000000  0.50000000  1
  F  F385  1  0.25000000  0.75000000  0.00000000  1
  F  F386  1  0.75000000  -0.00000000  0.25000000  1
  F  F387  1  0.00000000  0.25000000  0.75000000  1
  F  F388  1  0.50000000  0.00000000  0.00000000  1
  F  F389  1  0.25000000  0.25000000  0.50000000  1
  F  F390  1  0.75000000  0.50000000  0.75000000  1
  F  F391  1  0.00000000  0.75000000  0.25000000  1
  F  F392  1  0.00000000  0.50000000  0.00000000  1
  F  F393  1  0.75000000  0.75000000  0.50000000  1
  F  F394  1  0.25000000  0.00000000  0.75000000  1
  F  F395  1  0.50000000  0.25000000  0.25000000  1
  F  F396  1  0.00000000  0.00000000  0.50000000  1
  F  F397  1  0.75000000  0.25000000  -0.00000000  1
  F  F398  1  0.25000000  0.50000000  0.25000000  1
  F  F399  1  0.50000000  0.75000000  0.75000000  1
  F  F400  1  0.87246917  0.71369259  0.09905552  1
  F  F401  1  0.87753083  0.53630741  0.59905552  1
  F  F402  1  0.37753083  0.21369259  0.65094448  1
  F  F403  1  0.37246917  0.03630741  0.15094448  1
  F  F404  1  0.09905552  0.87246917  0.71369259  1
  F  F405  1  0.59905552  0.87753083  0.53630741  1
  F  F406  1  0.65094448  0.37753083  0.21369259  1
  F  F407  1  0.15094448  0.37246917  0.03630741  1
  F  F408  1  0.71369259  0.09905552  0.87246917  1
  F  F409  1  0.53630741  0.59905552  0.87753083  1
  F  F410  1  0.21369259  0.65094448  0.37753083  1
  F  F411  1  0.03630741  0.15094448  0.37246917  1
  F  F412  1  0.46369259  0.12246917  0.40094448  1
  F  F413  1  0.28630741  0.12753083  0.90094448  1
  F  F414  1  0.96369259  0.62753083  0.84905552  1
  F  F415  1  0.78630741  0.62246917  0.34905552  1
  F  F416  1  0.62246917  0.34905552  0.78630741  1
  F  F417  1  0.62753083  0.84905552  0.96369259  1
  F  F418  1  0.12753083  0.90094448  0.28630741  1
  F  F419  1  0.12246917  0.40094448  0.46369259  1
  F  F420  1  0.84905552  0.96369259  0.62753083  1
  F  F421  1  0.34905552  0.78630741  0.62246917  1
  F  F422  1  0.40094448  0.46369259  0.12246917  1
  F  F423  1  0.90094448  0.28630741  0.12753083  1
  F  F424  1  0.12753083  0.28630741  0.90094448  1
  F  F425  1  0.12246917  0.46369259  0.40094448  1
  F  F426  1  0.62246917  0.78630741  0.34905552  1
  F  F427  1  0.62753083  0.96369259  0.84905552  1
  F  F428  1  0.90094448  0.12753083  0.28630741  1
  F  F429  1  0.40094448  0.12246917  0.46369259  1
  F  F430  1  0.34905552  0.62246917  0.78630741  1
  F  F431  1  0.84905552  0.62753083  0.96369259  1
  F  F432  1  0.28630741  0.90094448  0.12753083  1
  F  F433  1  0.46369259  0.40094448  0.12246917  1
  F  F434  1  0.78630741  0.34905552  0.62246917  1
  F  F435  1  0.96369259  0.84905552  0.62753083  1
  F  F436  1  0.53630741  0.87753083  0.59905552  1
  F  F437  1  0.71369259  0.87246917  0.09905552  1
  F  F438  1  0.03630741  0.37246917  0.15094448  1
  F  F439  1  0.21369259  0.37753083  0.65094448  1
  F  F440  1  0.37753083  0.65094448  0.21369259  1
  F  F441  1  0.37246917  0.15094448  0.03630741  1
  F  F442  1  0.87246917  0.09905552  0.71369259  1
  F  F443  1  0.87753083  0.59905552  0.53630741  1
  F  F444  1  0.15094448  0.03630741  0.37246917  1
  F  F445  1  0.65094448  0.21369259  0.37753083  1
  F  F446  1  0.59905552  0.53630741  0.87753083  1
  F  F447  1  0.09905552  0.71369259  0.87246917  1
  F  F448  1  0.87246917  0.21369259  0.59905552  1
  F  F449  1  0.87753083  0.03630741  0.09905552  1
  F  F450  1  0.37753083  0.71369259  0.15094448  1
  F  F451  1  0.37246917  0.53630741  0.65094448  1
  F  F452  1  0.09905552  0.37246917  0.21369259  1
  F  F453  1  0.59905552  0.37753083  0.03630741  1
  F  F454  1  0.65094448  0.87753083  0.71369259  1
  F  F455  1  0.15094448  0.87246917  0.53630741  1
  F  F456  1  0.71369259  0.59905552  0.37246917  1
  F  F457  1  0.53630741  0.09905552  0.37753083  1
  F  F458  1  0.21369259  0.15094448  0.87753083  1
  F  F459  1  0.03630741  0.65094448  0.87246917  1
  F  F460  1  0.46369259  0.62246917  0.90094448  1
  F  F461  1  0.28630741  0.62753083  0.40094448  1
  F  F462  1  0.96369259  0.12753083  0.34905552  1
  F  F463  1  0.78630741  0.12246917  0.84905552  1
  F  F464  1  0.62246917  0.84905552  0.28630741  1
  F  F465  1  0.62753083  0.34905552  0.46369259  1
  F  F466  1  0.12753083  0.40094448  0.78630741  1
  F  F467  1  0.12246917  0.90094448  0.96369259  1
  F  F468  1  0.84905552  0.46369259  0.12753083  1
  F  F469  1  0.34905552  0.28630741  0.12246917  1
  F  F470  1  0.40094448  0.96369259  0.62246917  1
  F  F471  1  0.90094448  0.78630741  0.62753083  1
  F  F472  1  0.12753083  0.78630741  0.40094448  1
  F  F473  1  0.12246917  0.96369259  0.90094448  1
  F  F474  1  0.62246917  0.28630741  0.84905552  1
  F  F475  1  0.62753083  0.46369259  0.34905552  1
  F  F476  1  0.90094448  0.62753083  0.78630741  1
  F  F477  1  0.40094448  0.62246917  0.96369259  1
  F  F478  1  0.34905552  0.12246917  0.28630741  1
  F  F479  1  0.84905552  0.12753083  0.46369259  1
  F  F480  1  0.28630741  0.40094448  0.62753083  1
  F  F481  1  0.46369259  0.90094448  0.62246917  1
  F  F482  1  0.78630741  0.84905552  0.12246917  1
  F  F483  1  0.96369259  0.34905552  0.12753083  1
  F  F484  1  0.53630741  0.37753083  0.09905552  1
  F  F485  1  0.71369259  0.37246917  0.59905552  1
  F  F486  1  0.03630741  0.87246917  0.65094448  1
  F  F487  1  0.21369259  0.87753083  0.15094448  1
  F  F488  1  0.37753083  0.15094448  0.71369259  1
  F  F489  1  0.37246917  0.65094448  0.53630741  1
  F  F490  1  0.87246917  0.59905552  0.21369259  1
  F  F491  1  0.87753083  0.09905552  0.03630741  1
  F  F492  1  0.15094448  0.53630741  0.87246917  1
  F  F493  1  0.65094448  0.71369259  0.87753083  1
  F  F494  1  0.59905552  0.03630741  0.37753083  1
  F  F495  1  0.09905552  0.21369259  0.37246917  1
  F  F496  1  0.37246917  0.71369259  0.59905552  1
  F  F497  1  0.37753083  0.53630741  0.09905552  1
  F  F498  1  0.87753083  0.21369259  0.15094448  1
  F  F499  1  0.87246917  0.03630741  0.65094448  1
  F  F500  1  0.59905552  0.87246917  0.21369259  1
  F  F501  1  0.09905552  0.87753083  0.03630741  1
  F  F502  1  0.15094448  0.37753083  0.71369259  1
  F  F503  1  0.65094448  0.37246917  0.53630741  1
  F  F504  1  0.21369259  0.09905552  0.37246917  1
  F  F505  1  0.03630741  0.59905552  0.37753083  1
  F  F506  1  0.71369259  0.65094448  0.87753083  1
  F  F507  1  0.53630741  0.15094448  0.87246917  1
  F  F508  1  0.96369259  0.12246917  0.90094448  1
  F  F509  1  0.78630741  0.12753083  0.40094448  1
  F  F510  1  0.46369259  0.62753083  0.34905552  1
  F  F511  1  0.28630741  0.62246917  0.84905552  1
  F  F512  1  0.12246917  0.34905552  0.28630741  1
  F  F513  1  0.12753083  0.84905552  0.46369259  1
  F  F514  1  0.62753083  0.90094448  0.78630741  1
  F  F515  1  0.62246917  0.40094448  0.96369259  1
  F  F516  1  0.34905552  0.96369259  0.12753083  1
  F  F517  1  0.84905552  0.78630741  0.12246917  1
  F  F518  1  0.90094448  0.46369259  0.62246917  1
  F  F519  1  0.40094448  0.28630741  0.62753083  1
  F  F520  1  0.62753083  0.28630741  0.40094448  1
  F  F521  1  0.62246917  0.46369259  0.90094448  1
  F  F522  1  0.12246917  0.78630741  0.84905552  1
  F  F523  1  0.12753083  0.96369259  0.34905552  1
  F  F524  1  0.40094448  0.12753083  0.78630741  1
  F  F525  1  0.90094448  0.12246917  0.96369259  1
  F  F526  1  0.84905552  0.62246917  0.28630741  1
  F  F527  1  0.34905552  0.62753083  0.46369259  1
  F  F528  1  0.78630741  0.90094448  0.62753083  1
  F  F529  1  0.96369259  0.40094448  0.62246917  1
  F  F530  1  0.28630741  0.34905552  0.12246917  1
  F  F531  1  0.46369259  0.84905552  0.12753083  1
  F  F532  1  0.03630741  0.87753083  0.09905552  1
  F  F533  1  0.21369259  0.87246917  0.59905552  1
  F  F534  1  0.53630741  0.37246917  0.65094448  1
  F  F535  1  0.71369259  0.37753083  0.15094448  1
  F  F536  1  0.87753083  0.65094448  0.71369259  1
  F  F537  1  0.87246917  0.15094448  0.53630741  1
  F  F538  1  0.37246917  0.09905552  0.21369259  1
  F  F539  1  0.37753083  0.59905552  0.03630741  1
  F  F540  1  0.65094448  0.03630741  0.87246917  1
  F  F541  1  0.15094448  0.21369259  0.87753083  1
  F  F542  1  0.09905552  0.53630741  0.37753083  1
  F  F543  1  0.59905552  0.71369259  0.37246917  1
  F  F544  1  0.37246917  0.21369259  0.09905552  1
  F  F545  1  0.37753083  0.03630741  0.59905552  1
  F  F546  1  0.87753083  0.71369259  0.65094448  1
  F  F547  1  0.87246917  0.53630741  0.15094448  1
  F  F548  1  0.59905552  0.37246917  0.71369259  1
  F  F549  1  0.09905552  0.37753083  0.53630741  1
  F  F550  1  0.15094448  0.87753083  0.21369259  1
  F  F551  1  0.65094448  0.87246917  0.03630741  1
  F  F552  1  0.21369259  0.59905552  0.87246917  1
  F  F553  1  0.03630741  0.09905552  0.87753083  1
  F  F554  1  0.71369259  0.15094448  0.37753083  1
  F  F555  1  0.53630741  0.65094448  0.37246917  1
  F  F556  1  0.96369259  0.62246917  0.40094448  1
  F  F557  1  0.78630741  0.62753083  0.90094448  1
  F  F558  1  0.46369259  0.12753083  0.84905552  1
  F  F559  1  0.28630741  0.12246917  0.34905552  1
  F  F560  1  0.12246917  0.84905552  0.78630741  1
  F  F561  1  0.12753083  0.34905552  0.96369259  1
  F  F562  1  0.62753083  0.40094448  0.28630741  1
  F  F563  1  0.62246917  0.90094448  0.46369259  1
  F  F564  1  0.34905552  0.46369259  0.62753083  1
  F  F565  1  0.84905552  0.28630741  0.62246917  1
  F  F566  1  0.90094448  0.96369259  0.12246917  1
  F  F567  1  0.40094448  0.78630741  0.12753083  1
  F  F568  1  0.62753083  0.78630741  0.90094448  1
  F  F569  1  0.62246917  0.96369259  0.40094448  1
  F  F570  1  0.12246917  0.28630741  0.34905552  1
  F  F571  1  0.12753083  0.46369259  0.84905552  1
  F  F572  1  0.40094448  0.62753083  0.28630741  1
  F  F573  1  0.90094448  0.62246917  0.46369259  1
  F  F574  1  0.84905552  0.12246917  0.78630741  1
  F  F575  1  0.34905552  0.12753083  0.96369259  1
  F  F576  1  0.78630741  0.40094448  0.12753083  1
  F  F577  1  0.96369259  0.90094448  0.12246917  1
  F  F578  1  0.28630741  0.84905552  0.62246917  1
  F  F579  1  0.46369259  0.34905552  0.62753083  1
  F  F580  1  0.03630741  0.37753083  0.59905552  1
  F  F581  1  0.21369259  0.37246917  0.09905552  1
  F  F582  1  0.53630741  0.87246917  0.15094448  1
  F  F583  1  0.71369259  0.87753083  0.65094448  1
  F  F584  1  0.87753083  0.15094448  0.21369259  1
  F  F585  1  0.87246917  0.65094448  0.03630741  1
  F  F586  1  0.37246917  0.59905552  0.71369259  1
  F  F587  1  0.37753083  0.09905552  0.53630741  1
  F  F588  1  0.65094448  0.53630741  0.37246917  1
  F  F589  1  0.15094448  0.71369259  0.37753083  1
  F  F590  1  0.09905552  0.03630741  0.87753083  1
  F  F591  1  0.59905552  0.21369259  0.87246917  1
  F  F592  1  0.46166961  0.46166961  0.66308235  1
  F  F593  1  0.28833039  0.78833039  0.16308235  1
  F  F594  1  0.78833039  0.96166961  0.08691765  1
  F  F595  1  0.96166961  0.28833039  0.58691765  1
  F  F596  1  0.66308235  0.46166961  0.46166961  1
  F  F597  1  0.16308235  0.28833039  0.78833039  1
  F  F598  1  0.08691765  0.78833039  0.96166961  1
  F  F599  1  0.58691765  0.96166961  0.28833039  1
  F  F600  1  0.46166961  0.66308235  0.46166961  1
  F  F601  1  0.78833039  0.16308235  0.28833039  1
  F  F602  1  0.96166961  0.08691765  0.78833039  1
  F  F603  1  0.28833039  0.58691765  0.96166961  1
  F  F604  1  0.21166961  0.71166961  0.83691765  1
  F  F605  1  0.53833039  0.53833039  0.33691765  1
  F  F606  1  0.71166961  0.03833039  0.41308235  1
  F  F607  1  0.03833039  0.21166961  0.91308235  1
  F  F608  1  0.21166961  0.91308235  0.03833039  1
  F  F609  1  0.03833039  0.41308235  0.71166961  1
  F  F610  1  0.53833039  0.33691765  0.53833039  1
  F  F611  1  0.71166961  0.83691765  0.21166961  1
  F  F612  1  0.41308235  0.71166961  0.03833039  1
  F  F613  1  0.91308235  0.03833039  0.21166961  1
  F  F614  1  0.83691765  0.21166961  0.71166961  1
  F  F615  1  0.33691765  0.53833039  0.53833039  1
  F  F616  1  0.46166961  0.96166961  0.16308235  1
  F  F617  1  0.28833039  0.28833039  0.66308235  1
  F  F618  1  0.78833039  0.46166961  0.58691765  1
  F  F619  1  0.96166961  0.78833039  0.08691765  1
  F  F620  1  0.66308235  0.96166961  0.96166961  1
  F  F621  1  0.16308235  0.78833039  0.28833039  1
  F  F622  1  0.08691765  0.28833039  0.46166961  1
  F  F623  1  0.58691765  0.46166961  0.78833039  1
  F  F624  1  0.46166961  0.16308235  0.96166961  1
  F  F625  1  0.78833039  0.66308235  0.78833039  1
  F  F626  1  0.96166961  0.58691765  0.28833039  1
  F  F627  1  0.28833039  0.08691765  0.46166961  1
  F  F628  1  0.21166961  0.21166961  0.33691765  1
  F  F629  1  0.53833039  0.03833039  0.83691765  1
  F  F630  1  0.71166961  0.53833039  0.91308235  1
  F  F631  1  0.03833039  0.71166961  0.41308235  1
  F  F632  1  0.21166961  0.41308235  0.53833039  1
  F  F633  1  0.03833039  0.91308235  0.21166961  1
  F  F634  1  0.53833039  0.83691765  0.03833039  1
  F  F635  1  0.71166961  0.33691765  0.71166961  1
  F  F636  1  0.41308235  0.21166961  0.53833039  1
  F  F637  1  0.91308235  0.53833039  0.71166961  1
  F  F638  1  0.83691765  0.71166961  0.21166961  1
  F  F639  1  0.33691765  0.03833039  0.03833039  1
  F  F640  1  0.96166961  0.46166961  0.16308235  1
  F  F641  1  0.78833039  0.78833039  0.66308235  1
  F  F642  1  0.28833039  0.96166961  0.58691765  1
  F  F643  1  0.46166961  0.28833039  0.08691765  1
  F  F644  1  0.16308235  0.46166961  0.96166961  1
  F  F645  1  0.66308235  0.28833039  0.28833039  1
  F  F646  1  0.58691765  0.78833039  0.46166961  1
  F  F647  1  0.08691765  0.96166961  0.78833039  1
  F  F648  1  0.96166961  0.66308235  0.96166961  1
  F  F649  1  0.28833039  0.16308235  0.78833039  1
  F  F650  1  0.46166961  0.08691765  0.28833039  1
  F  F651  1  0.78833039  0.58691765  0.46166961  1
  F  F652  1  0.71166961  0.71166961  0.33691765  1
  F  F653  1  0.03833039  0.53833039  0.83691765  1
  F  F654  1  0.21166961  0.03833039  0.91308235  1
  F  F655  1  0.53833039  0.21166961  0.41308235  1
  F  F656  1  0.71166961  0.91308235  0.53833039  1
  F  F657  1  0.53833039  0.41308235  0.21166961  1
  F  F658  1  0.03833039  0.33691765  0.03833039  1
  F  F659  1  0.21166961  0.83691765  0.71166961  1
  F  F660  1  0.91308235  0.71166961  0.53833039  1
  F  F661  1  0.41308235  0.03833039  0.71166961  1
  F  F662  1  0.33691765  0.21166961  0.21166961  1
  F  F663  1  0.83691765  0.53833039  0.03833039  1
  F  F664  1  0.96166961  0.96166961  0.66308235  1
  F  F665  1  0.78833039  0.28833039  0.16308235  1
  F  F666  1  0.28833039  0.46166961  0.08691765  1
  F  F667  1  0.46166961  0.78833039  0.58691765  1
  F  F668  1  0.16308235  0.96166961  0.46166961  1
  F  F669  1  0.66308235  0.78833039  0.78833039  1
  F  F670  1  0.58691765  0.28833039  0.96166961  1
  F  F671  1  0.08691765  0.46166961  0.28833039  1
  F  F672  1  0.96166961  0.16308235  0.46166961  1
  F  F673  1  0.28833039  0.66308235  0.28833039  1
  F  F674  1  0.46166961  0.58691765  0.78833039  1
  F  F675  1  0.78833039  0.08691765  0.96166961  1
  F  F676  1  0.71166961  0.21166961  0.83691765  1
  F  F677  1  0.03833039  0.03833039  0.33691765  1
  F  F678  1  0.21166961  0.53833039  0.41308235  1
  F  F679  1  0.53833039  0.71166961  0.91308235  1
  F  F680  1  0.71166961  0.41308235  0.03833039  1
  F  F681  1  0.53833039  0.91308235  0.71166961  1
  F  F682  1  0.03833039  0.83691765  0.53833039  1
  F  F683  1  0.21166961  0.33691765  0.21166961  1
  F  F684  1  0.91308235  0.21166961  0.03833039  1
  F  F685  1  0.41308235  0.53833039  0.21166961  1
  F  F686  1  0.33691765  0.71166961  0.71166961  1
  F  F687  1  0.83691765  0.03833039  0.53833039  1
  F  F688  1  0.18214782  0.18214782  0.18214782  1
  F  F689  1  0.56785218  0.06785218  0.68214782  1
  F  F690  1  0.06785218  0.68214782  0.56785218  1
  F  F691  1  0.68214782  0.56785218  0.06785218  1
  F  F692  1  0.93214782  0.43214782  0.31785218  1
  F  F693  1  0.81785218  0.81785218  0.81785218  1
  F  F694  1  0.43214782  0.31785218  0.93214782  1
  F  F695  1  0.31785218  0.93214782  0.43214782  1
  F  F696  1  0.18214782  0.68214782  0.68214782  1
  F  F697  1  0.56785218  0.56785218  0.18214782  1
  F  F698  1  0.06785218  0.18214782  0.06785218  1
  F  F699  1  0.68214782  0.06785218  0.56785218  1
  F  F700  1  0.93214782  0.93214782  0.81785218  1
  F  F701  1  0.81785218  0.31785218  0.31785218  1
  F  F702  1  0.43214782  0.81785218  0.43214782  1
  F  F703  1  0.31785218  0.43214782  0.93214782  1
  F  F704  1  0.68214782  0.18214782  0.68214782  1
  F  F705  1  0.06785218  0.06785218  0.18214782  1
  F  F706  1  0.56785218  0.68214782  0.06785218  1
  F  F707  1  0.18214782  0.56785218  0.56785218  1
  F  F708  1  0.43214782  0.43214782  0.81785218  1
  F  F709  1  0.31785218  0.81785218  0.31785218  1
  F  F710  1  0.93214782  0.31785218  0.43214782  1
  F  F711  1  0.81785218  0.93214782  0.93214782  1
  F  F712  1  0.68214782  0.68214782  0.18214782  1
  F  F713  1  0.06785218  0.56785218  0.68214782  1
  F  F714  1  0.56785218  0.18214782  0.56785218  1
  F  F715  1  0.18214782  0.06785218  0.06785218  1
  F  F716  1  0.43214782  0.93214782  0.31785218  1
  F  F717  1  0.31785218  0.31785218  0.81785218  1
  F  F718  1  0.93214782  0.81785218  0.93214782  1
  F  F719  1  0.81785218  0.43214782  0.43214782  1
  K  K720  1  0.40726609  0.12500000  0.12500000  1
  K  K721  1  0.34273391  0.12500000  0.62500000  1
  K  K722  1  0.12500000  0.40726609  0.12500000  1
  K  K723  1  0.62500000  0.34273391  0.12500000  1
  K  K724  1  0.12500000  0.12500000  0.40726609  1
  K  K725  1  0.12500000  0.62500000  0.34273391  1
  K  K726  1  0.87500000  0.65726609  0.37500000  1
  K  K727  1  0.87500000  0.59273391  0.87500000  1
  K  K728  1  0.15726609  0.37500000  0.37500000  1
  K  K729  1  0.09273391  0.87500000  0.37500000  1
  K  K730  1  0.87500000  0.37500000  0.09273391  1
  K  K731  1  0.37500000  0.37500000  0.15726609  1
  K  K732  1  0.40726609  0.62500000  0.62500000  1
  K  K733  1  0.34273391  0.62500000  0.12500000  1
  K  K734  1  0.12500000  0.90726609  0.62500000  1
  K  K735  1  0.62500000  0.84273391  0.62500000  1
  K  K736  1  0.12500000  0.62500000  0.90726609  1
  K  K737  1  0.12500000  0.12500000  0.84273391  1
  K  K738  1  0.87500000  0.15726609  0.87500000  1
  K  K739  1  0.87500000  0.09273391  0.37500000  1
  K  K740  1  0.15726609  0.87500000  0.87500000  1
  K  K741  1  0.09273391  0.37500000  0.87500000  1
  K  K742  1  0.87500000  0.87500000  0.59273391  1
  K  K743  1  0.37500000  0.87500000  0.65726609  1
  K  K744  1  0.90726609  0.12500000  0.62500000  1
  K  K745  1  0.84273391  0.12500000  0.12500000  1
  K  K746  1  0.62500000  0.40726609  0.62500000  1
  K  K747  1  0.12500000  0.34273391  0.62500000  1
  K  K748  1  0.62500000  0.12500000  0.90726609  1
  K  K749  1  0.62500000  0.62500000  0.84273391  1
  K  K750  1  0.37500000  0.65726609  0.87500000  1
  K  K751  1  0.37500000  0.59273391  0.37500000  1
  K  K752  1  0.65726609  0.37500000  0.87500000  1
  K  K753  1  0.59273391  0.87500000  0.87500000  1
  K  K754  1  0.37500000  0.37500000  0.59273391  1
  K  K755  1  0.87500000  0.37500000  0.65726609  1
  K  K756  1  0.90726609  0.62500000  0.12500000  1
  K  K757  1  0.84273391  0.62500000  0.62500000  1
  K  K758  1  0.62500000  0.90726609  0.12500000  1
  K  K759  1  0.12500000  0.84273391  0.12500000  1
  K  K760  1  0.62500000  0.62500000  0.40726609  1
  K  K761  1  0.62500000  0.12500000  0.34273391  1
  K  K762  1  0.37500000  0.15726609  0.37500000  1
  K  K763  1  0.37500000  0.09273391  0.87500000  1
  K  K764  1  0.65726609  0.87500000  0.37500000  1
  K  K765  1  0.59273391  0.37500000  0.37500000  1
  K  K766  1  0.37500000  0.87500000  0.09273391  1
  K  K767  1  0.87500000  0.87500000  0.15726609  1
  Sb  Sb768  1  0.47568185  0.53714431  0.86860272  1
  Sb  Sb769  1  0.27431815  -0.28714431  1.36860272  1
  Sb  Sb770  1  -0.22568185  1.03714431  -0.11860272  1
  Sb  Sb771  1  0.97568185  0.21285569  -0.61860272  1
  Sb  Sb772  1  0.86860272  0.47568185  0.53714431  1
  Sb  Sb773  1  1.36860272  0.27431815  -0.28714431  1
  Sb  Sb774  1  -0.11860272  -0.22568185  1.03714431  1
  Sb  Sb775  1  -0.61860272  0.97568185  0.21285569  1
  Sb  Sb776  1  0.53714431  0.86860272  0.47568185  1
  Sb  Sb777  1  -0.28714431  1.36860272  0.27431815  1
  Sb  Sb778  1  1.03714431  -0.11860272  -0.22568185  1
  Sb  Sb779  1  0.21285569  -0.61860272  0.97568185  1
  Sb  Sb780  1  1.28714431  0.72568185  -0.36860272  1
  Sb  Sb781  1  -0.53714431  -0.47568185  -0.86860272  1
  Sb  Sb782  1  0.78714431  0.02431815  1.61860272  1
  Sb  Sb783  1  -0.03714431  1.22568185  1.11860272  1
  Sb  Sb784  1  1.22568185  1.11860272  -0.03714431  1
  Sb  Sb785  1  0.02431815  1.61860272  0.78714431  1
  Sb  Sb786  1  -0.47568185  -0.86860272  -0.53714431  1
  Sb  Sb787  1  0.72568185  -0.36860272  1.28714431  1
  Sb  Sb788  1  1.61860272  0.78714431  0.02431815  1
  Sb  Sb789  1  1.11860272  -0.03714431  1.22568185  1
  Sb  Sb790  1  -0.36860272  1.28714431  0.72568185  1
  Sb  Sb791  1  -0.86860272  -0.53714431  -0.47568185  1
  Sb  Sb792  1  -0.47568185  -0.53714431  -0.86860272  1
  Sb  Sb793  1  0.72568185  1.28714431  -0.36860272  1
  Sb  Sb794  1  1.22568185  -0.03714431  1.11860272  1
  Sb  Sb795  1  0.02431815  0.78714431  1.61860272  1
  Sb  Sb796  1  -0.86860272  -0.47568185  -0.53714431  1
  Sb  Sb797  1  -0.36860272  0.72568185  1.28714431  1
  Sb  Sb798  1  1.11860272  1.22568185  -0.03714431  1
  Sb  Sb799  1  1.61860272  0.02431815  0.78714431  1
  Sb  Sb800  1  -0.53714431  -0.86860272  -0.47568185  1
  Sb  Sb801  1  1.28714431  -0.36860272  0.72568185  1
  Sb  Sb802  1  -0.03714431  1.11860272  1.22568185  1
  Sb  Sb803  1  0.78714431  1.61860272  0.02431815  1
  Sb  Sb804  1  -0.28714431  0.27431815  1.36860272  1
  Sb  Sb805  1  0.53714431  0.47568185  0.86860272  1
  Sb  Sb806  1  0.21285569  0.97568185  -0.61860272  1
  Sb  Sb807  1  1.03714431  -0.22568185  -0.11860272  1
  Sb  Sb808  1  -0.22568185  -0.11860272  1.03714431  1
  Sb  Sb809  1  0.97568185  -0.61860272  0.21285569  1
  Sb  Sb810  1  0.47568185  0.86860272  0.53714431  1
  Sb  Sb811  1  0.27431815  1.36860272  -0.28714431  1
  Sb  Sb812  1  -0.61860272  0.21285569  0.97568185  1
  Sb  Sb813  1  -0.11860272  1.03714431  -0.22568185  1
  Sb  Sb814  1  1.36860272  -0.28714431  0.27431815  1
  Sb  Sb815  1  0.86860272  0.53714431  0.47568185  1
  Sb  Sb816  1  0.47568185  1.03714431  1.36860272  1
  Sb  Sb817  1  0.27431815  0.21285569  1.86860272  1
  Sb  Sb818  1  -0.22568185  1.53714431  0.38139728  1
  Sb  Sb819  1  0.97568185  0.71285569  -0.11860272  1
  Sb  Sb820  1  0.86860272  0.97568185  1.03714431  1
  Sb  Sb821  1  1.36860272  0.77431815  0.21285569  1
  Sb  Sb822  1  -0.11860272  0.27431815  1.53714431  1
  Sb  Sb823  1  -0.61860272  1.47568185  0.71285569  1
  Sb  Sb824  1  0.53714431  1.36860272  0.97568185  1
  Sb  Sb825  1  -0.28714431  1.86860272  0.77431815  1
  Sb  Sb826  1  1.03714431  0.38139728  0.27431815  1
  Sb  Sb827  1  0.21285569  -0.11860272  1.47568185  1
  Sb  Sb828  1  1.28714431  1.22568185  0.13139728  1
  Sb  Sb829  1  -0.53714431  0.02431815  -0.36860272  1
  Sb  Sb830  1  0.78714431  0.52431815  2.11860272  1
  Sb  Sb831  1  -0.03714431  1.72568185  1.61860272  1
  Sb  Sb832  1  1.22568185  1.61860272  0.46285569  1
  Sb  Sb833  1  0.02431815  2.11860272  1.28714431  1
  Sb  Sb834  1  -0.47568185  -0.36860272  -0.03714431  1
  Sb  Sb835  1  0.72568185  0.13139728  1.78714431  1
  Sb  Sb836  1  1.61860272  1.28714431  0.52431815  1
  Sb  Sb837  1  1.11860272  0.46285569  1.72568185  1
  Sb  Sb838  1  -0.36860272  1.78714431  1.22568185  1
  Sb  Sb839  1  -0.86860272  -0.03714431  0.02431815  1
  Sb  Sb840  1  -0.47568185  -0.03714431  -0.36860272  1
  Sb  Sb841  1  0.72568185  1.78714431  0.13139728  1
  Sb  Sb842  1  1.22568185  0.46285569  1.61860272  1
  Sb  Sb843  1  0.02431815  1.28714431  2.11860272  1
  Sb  Sb844  1  -0.86860272  0.02431815  -0.03714431  1
  Sb  Sb845  1  -0.36860272  1.22568185  1.78714431  1
  Sb  Sb846  1  1.11860272  1.72568185  0.46285569  1
  Sb  Sb847  1  1.61860272  0.52431815  1.28714431  1
  Sb  Sb848  1  -0.53714431  -0.36860272  0.02431815  1
  Sb  Sb849  1  1.28714431  0.13139728  1.22568185  1
  Sb  Sb850  1  -0.03714431  1.61860272  1.72568185  1
  Sb  Sb851  1  0.78714431  2.11860272  0.52431815  1
  Sb  Sb852  1  -0.28714431  0.77431815  1.86860272  1
  Sb  Sb853  1  0.53714431  0.97568185  1.36860272  1
  Sb  Sb854  1  0.21285569  1.47568185  -0.11860272  1
  Sb  Sb855  1  1.03714431  0.27431815  0.38139728  1
  Sb  Sb856  1  -0.22568185  0.38139728  1.53714431  1
  Sb  Sb857  1  0.97568185  -0.11860272  0.71285569  1
  Sb  Sb858  1  0.47568185  1.36860272  1.03714431  1
  Sb  Sb859  1  0.27431815  1.86860272  0.21285569  1
  Sb  Sb860  1  -0.61860272  0.71285569  1.47568185  1
  Sb  Sb861  1  -0.11860272  1.53714431  0.27431815  1
  Sb  Sb862  1  1.36860272  0.21285569  0.77431815  1
  Sb  Sb863  1  0.86860272  1.03714431  0.97568185  1
  Sb  Sb864  1  0.97568185  0.53714431  1.36860272  1
  Sb  Sb865  1  0.77431815  -0.28714431  1.86860272  1
  Sb  Sb866  1  0.27431815  1.03714431  0.38139728  1
  Sb  Sb867  1  1.47568185  0.21285569  -0.11860272  1
  Sb  Sb868  1  1.36860272  0.47568185  1.03714431  1
  Sb  Sb869  1  1.86860272  0.27431815  0.21285569  1
  Sb  Sb870  1  0.38139728  -0.22568185  1.53714431  1
  Sb  Sb871  1  -0.11860272  0.97568185  0.71285569  1
  Sb  Sb872  1  1.03714431  0.86860272  0.97568185  1
  Sb  Sb873  1  0.21285569  1.36860272  0.77431815  1
  Sb  Sb874  1  1.53714431  -0.11860272  0.27431815  1
  Sb  Sb875  1  0.71285569  -0.61860272  1.47568185  1
  Sb  Sb876  1  1.78714431  0.72568185  0.13139728  1
  Sb  Sb877  1  -0.03714431  -0.47568185  -0.36860272  1
  Sb  Sb878  1  1.28714431  0.02431815  2.11860272  1
  Sb  Sb879  1  0.46285569  1.22568185  1.61860272  1
  Sb  Sb880  1  1.72568185  1.11860272  0.46285569  1
  Sb  Sb881  1  0.52431815  1.61860272  1.28714431  1
  Sb  Sb882  1  0.02431815  -0.86860272  -0.03714431  1
  Sb  Sb883  1  1.22568185  -0.36860272  1.78714431  1
  Sb  Sb884  1  2.11860272  0.78714431  0.52431815  1
  Sb  Sb885  1  1.61860272  -0.03714431  1.72568185  1
  Sb  Sb886  1  0.13139728  1.28714431  1.22568185  1
  Sb  Sb887  1  -0.36860272  -0.53714431  0.02431815  1
  Sb  Sb888  1  0.02431815  -0.53714431  -0.36860272  1
  Sb  Sb889  1  1.22568185  1.28714431  0.13139728  1
  Sb  Sb890  1  1.72568185  -0.03714431  1.61860272  1
  Sb  Sb891  1  0.52431815  0.78714431  2.11860272  1
  Sb  Sb892  1  -0.36860272  -0.47568185  -0.03714431  1
  Sb  Sb893  1  0.13139728  0.72568185  1.78714431  1
  Sb  Sb894  1  1.61860272  1.22568185  0.46285569  1
  Sb  Sb895  1  2.11860272  0.02431815  1.28714431  1
  Sb  Sb896  1  -0.03714431  -0.86860272  0.02431815  1
  Sb  Sb897  1  1.78714431  -0.36860272  1.22568185  1
  Sb  Sb898  1  0.46285569  1.11860272  1.72568185  1
  Sb  Sb899  1  1.28714431  1.61860272  0.52431815  1
  Sb  Sb900  1  0.21285569  0.27431815  1.86860272  1
  Sb  Sb901  1  1.03714431  0.47568185  1.36860272  1
  Sb  Sb902  1  0.71285569  0.97568185  -0.11860272  1
  Sb  Sb903  1  1.53714431  -0.22568185  0.38139728  1
  Sb  Sb904  1  0.27431815  -0.11860272  1.53714431  1
  Sb  Sb905  1  1.47568185  -0.61860272  0.71285569  1
  Sb  Sb906  1  0.97568185  0.86860272  1.03714431  1
  Sb  Sb907  1  0.77431815  1.36860272  0.21285569  1
  Sb  Sb908  1  -0.11860272  0.21285569  1.47568185  1
  Sb  Sb909  1  0.38139728  1.03714431  0.27431815  1
  Sb  Sb910  1  1.86860272  -0.28714431  0.77431815  1
  Sb  Sb911  1  1.36860272  0.53714431  0.97568185  1
  Sb  Sb912  1  0.97568185  1.03714431  0.86860272  1
  Sb  Sb913  1  0.77431815  0.21285569  1.36860272  1
  Sb  Sb914  1  0.27431815  1.53714431  -0.11860272  1
  Sb  Sb915  1  1.47568185  0.71285569  -0.61860272  1
  Sb  Sb916  1  1.36860272  0.97568185  0.53714431  1
  Sb  Sb917  1  1.86860272  0.77431815  -0.28714431  1
  Sb  Sb918  1  0.38139728  0.27431815  1.03714431  1
  Sb  Sb919  1  -0.11860272  1.47568185  0.21285569  1
  Sb  Sb920  1  1.03714431  1.36860272  0.47568185  1
  Sb  Sb921  1  0.21285569  1.86860272  0.27431815  1
  Sb  Sb922  1  1.53714431  0.38139728  -0.22568185  1
  Sb  Sb923  1  0.71285569  -0.11860272  0.97568185  1
  Sb  Sb924  1  1.78714431  1.22568185  -0.36860272  1
  Sb  Sb925  1  -0.03714431  0.02431815  -0.86860272  1
  Sb  Sb926  1  1.28714431  0.52431815  1.61860272  1
  Sb  Sb927  1  0.46285569  1.72568185  1.11860272  1
  Sb  Sb928  1  1.72568185  1.61860272  -0.03714431  1
  Sb  Sb929  1  0.52431815  2.11860272  0.78714431  1
  Sb  Sb930  1  0.02431815  -0.36860272  -0.53714431  1
  Sb  Sb931  1  1.22568185  0.13139728  1.28714431  1
  Sb  Sb932  1  2.11860272  1.28714431  0.02431815  1
  Sb  Sb933  1  1.61860272  0.46285569  1.22568185  1
  Sb  Sb934  1  0.13139728  1.78714431  0.72568185  1
  Sb  Sb935  1  -0.36860272  -0.03714431  -0.47568185  1
  Sb  Sb936  1  0.02431815  -0.03714431  -0.86860272  1
  Sb  Sb937  1  1.22568185  1.78714431  -0.36860272  1
  Sb  Sb938  1  1.72568185  0.46285569  1.11860272  1
  Sb  Sb939  1  0.52431815  1.28714431  1.61860272  1
  Sb  Sb940  1  -0.36860272  0.02431815  -0.53714431  1
  Sb  Sb941  1  0.13139728  1.22568185  1.28714431  1
  Sb  Sb942  1  1.61860272  1.72568185  -0.03714431  1
  Sb  Sb943  1  2.11860272  0.52431815  0.78714431  1
  Sb  Sb944  1  -0.03714431  -0.36860272  -0.47568185  1
  Sb  Sb945  1  1.78714431  0.13139728  0.72568185  1
  Sb  Sb946  1  0.46285569  1.61860272  1.22568185  1
  Sb  Sb947  1  1.28714431  2.11860272  0.02431815  1
  Sb  Sb948  1  0.21285569  0.77431815  1.36860272  1
  Sb  Sb949  1  1.03714431  0.97568185  0.86860272  1
  Sb  Sb950  1  0.71285569  1.47568185  -0.61860272  1
  Sb  Sb951  1  1.53714431  0.27431815  -0.11860272  1
  Sb  Sb952  1  0.27431815  0.38139728  1.03714431  1
  Sb  Sb953  1  1.47568185  -0.11860272  0.21285569  1
  Sb  Sb954  1  0.97568185  1.36860272  0.53714431  1
  Sb  Sb955  1  0.77431815  1.86860272  -0.28714431  1
  Sb  Sb956  1  -0.11860272  0.71285569  0.97568185  1
  Sb  Sb957  1  0.38139728  1.53714431  -0.22568185  1
  Sb  Sb958  1  1.86860272  0.21285569  0.27431815  1
  Sb  Sb959  1  1.36860272  1.03714431  0.47568185  1
  Si  Si960  1  0.00000000  0.00000000  0.00000000  1
  Si  Si961  1  0.75000000  0.25000000  0.50000000  1
  Si  Si962  1  0.25000000  0.50000000  0.75000000  1
  Si  Si963  1  0.50000000  0.75000000  0.25000000  1
  Si  Si964  1  0.00000000  0.50000000  0.50000000  1
  Si  Si965  1  0.75000000  0.75000000  -0.00000000  1
  Si  Si966  1  0.25000000  0.00000000  0.25000000  1
  Si  Si967  1  0.50000000  0.25000000  0.75000000  1
  Si  Si968  1  0.50000000  0.00000000  0.50000000  1
  Si  Si969  1  0.25000000  0.25000000  0.00000000  1
  Si  Si970  1  0.75000000  0.50000000  0.25000000  1
  Si  Si971  1  0.00000000  0.75000000  0.75000000  1
  Si  Si972  1  0.50000000  0.50000000  0.00000000  1
  Si  Si973  1  0.25000000  0.75000000  0.50000000  1
  Si  Si974  1  0.75000000  -0.00000000  0.75000000  1
  Si  Si975  1  0.00000000  0.25000000  0.25000000  1
  Si  Si976  1  0.37500000  0.37500000  0.37500000  1
  Si  Si977  1  0.12500000  0.62500000  0.12500000  1
  Si  Si978  1  0.37500000  0.87500000  0.87500000  1
  Si  Si979  1  0.12500000  0.12500000  0.62500000  1
  Si  Si980  1  0.87500000  0.37500000  0.87500000  1
  Si  Si981  1  0.62500000  0.62500000  0.62500000  1
  Si  Si982  1  0.87500000  0.87500000  0.37500000  1
  Si  Si983  1  0.62500000  0.12500000  0.12500000  1
