# generated using pymatgen
data_LiAl3(Te2Br)2
_symmetry_space_group_name_H-M   'P 1'
_cell_length_a   27.36759402
_cell_length_b   27.36759402
_cell_length_c   27.36759402
_cell_angle_alpha   90.00000000
_cell_angle_beta   90.00000000
_cell_angle_gamma   90.00000000
_symmetry_Int_Tables_number   1
_chemical_formula_structural   LiAl3(Te2Br)2
_chemical_formula_sum   'Li96 Al288 Te384 Br192'
_cell_volume   20497.92294870
_cell_formula_units_Z   96
loop_
 _symmetry_equiv_pos_site_id
 _symmetry_equiv_pos_as_xyz
  1  'x, y, z'
loop_
 _atom_site_type_symbol
 _atom_site_label
 _atom_site_symmetry_multiplicity
 _atom_site_fract_x
 _atom_site_fract_y
 _atom_site_fract_z
 _atom_site_occupancy
  Al  Al0  1  0.58957863  0.94670690  0.35187685  1
  Al  Al1  1  0.91042137  0.05329310  0.85187685  1
  Al  Al2  1  0.41042137  0.44670690  0.14812315  1
  Al  Al3  1  0.08957863  0.55329310  0.64812315  1
  Al  Al4  1  0.35187685  0.58957863  0.94670690  1
  Al  Al5  1  0.85187685  0.91042137  0.05329310  1
  Al  Al6  1  0.14812315  0.41042137  0.44670690  1
  Al  Al7  1  0.64812315  0.08957863  0.55329310  1
  Al  Al8  1  0.94670690  0.35187685  0.58957863  1
  Al  Al9  1  0.05329310  0.85187685  0.91042137  1
  Al  Al10  1  0.44670690  0.14812315  0.41042137  1
  Al  Al11  1  0.55329310  0.64812315  0.08957863  1
  Al  Al12  1  0.69670690  0.83957863  0.89812315  1
  Al  Al13  1  0.80329310  0.16042137  0.39812315  1
  Al  Al14  1  0.19670690  0.66042137  0.10187685  1
  Al  Al15  1  0.30329310  0.33957863  0.60187685  1
  Al  Al16  1  0.33957863  0.60187685  0.30329310  1
  Al  Al17  1  0.66042137  0.10187685  0.19670690  1
  Al  Al18  1  0.16042137  0.39812315  0.80329310  1
  Al  Al19  1  0.83957863  0.89812315  0.69670690  1
  Al  Al20  1  0.10187685  0.19670690  0.66042137  1
  Al  Al21  1  0.60187685  0.30329310  0.33957863  1
  Al  Al22  1  0.89812315  0.69670690  0.83957863  1
  Al  Al23  1  0.39812315  0.80329310  0.16042137  1
  Al  Al24  1  0.41042137  0.05329310  0.64812315  1
  Al  Al25  1  0.08957863  0.94670690  0.14812315  1
  Al  Al26  1  0.58957863  0.55329310  0.85187685  1
  Al  Al27  1  0.91042137  0.44670690  0.35187685  1
  Al  Al28  1  0.64812315  0.41042137  0.05329310  1
  Al  Al29  1  0.14812315  0.08957863  0.94670690  1
  Al  Al30  1  0.85187685  0.58957863  0.55329310  1
  Al  Al31  1  0.35187685  0.91042137  0.44670690  1
  Al  Al32  1  0.05329310  0.64812315  0.41042137  1
  Al  Al33  1  0.94670690  0.14812315  0.08957863  1
  Al  Al34  1  0.55329310  0.85187685  0.58957863  1
  Al  Al35  1  0.44670690  0.35187685  0.91042137  1
  Al  Al36  1  0.30329310  0.16042137  0.10187685  1
  Al  Al37  1  0.19670690  0.83957863  0.60187685  1
  Al  Al38  1  0.80329310  0.33957863  0.89812315  1
  Al  Al39  1  0.69670690  0.66042137  0.39812315  1
  Al  Al40  1  0.66042137  0.39812315  0.69670690  1
  Al  Al41  1  0.33957863  0.89812315  0.80329310  1
  Al  Al42  1  0.83957863  0.60187685  0.19670690  1
  Al  Al43  1  0.16042137  0.10187685  0.30329310  1
  Al  Al44  1  0.89812315  0.80329310  0.33957863  1
  Al  Al45  1  0.39812315  0.69670690  0.66042137  1
  Al  Al46  1  0.10187685  0.30329310  0.16042137  1
  Al  Al47  1  0.60187685  0.19670690  0.83957863  1
  Al  Al48  1  0.08957863  0.44670690  0.85187685  1
  Al  Al49  1  0.41042137  0.55329310  0.35187685  1
  Al  Al50  1  0.91042137  0.94670690  0.64812315  1
  Al  Al51  1  0.58957863  0.05329310  0.14812315  1
  Al  Al52  1  0.85187685  0.08957863  0.44670690  1
  Al  Al53  1  0.35187685  0.41042137  0.55329310  1
  Al  Al54  1  0.64812315  0.91042137  0.94670690  1
  Al  Al55  1  0.14812315  0.58957863  0.05329310  1
  Al  Al56  1  0.44670690  0.85187685  0.08957863  1
  Al  Al57  1  0.55329310  0.35187685  0.41042137  1
  Al  Al58  1  0.94670690  0.64812315  0.91042137  1
  Al  Al59  1  0.05329310  0.14812315  0.58957863  1
  Al  Al60  1  0.19670690  0.33957863  0.39812315  1
  Al  Al61  1  0.30329310  0.66042137  0.89812315  1
  Al  Al62  1  0.69670690  0.16042137  0.60187685  1
  Al  Al63  1  0.80329310  0.83957863  0.10187685  1
  Al  Al64  1  0.83957863  0.10187685  0.80329310  1
  Al  Al65  1  0.16042137  0.60187685  0.69670690  1
  Al  Al66  1  0.66042137  0.89812315  0.30329310  1
  Al  Al67  1  0.33957863  0.39812315  0.19670690  1
  Al  Al68  1  0.60187685  0.69670690  0.16042137  1
  Al  Al69  1  0.10187685  0.80329310  0.83957863  1
  Al  Al70  1  0.39812315  0.19670690  0.33957863  1
  Al  Al71  1  0.89812315  0.30329310  0.66042137  1
  Al  Al72  1  0.91042137  0.55329310  0.14812315  1
  Al  Al73  1  0.58957863  0.44670690  0.64812315  1
  Al  Al74  1  0.08957863  0.05329310  0.35187685  1
  Al  Al75  1  0.41042137  0.94670690  0.85187685  1
  Al  Al76  1  0.14812315  0.91042137  0.55329310  1
  Al  Al77  1  0.64812315  0.58957863  0.44670690  1
  Al  Al78  1  0.35187685  0.08957863  0.05329310  1
  Al  Al79  1  0.85187685  0.41042137  0.94670690  1
  Al  Al80  1  0.55329310  0.14812315  0.91042137  1
  Al  Al81  1  0.44670690  0.64812315  0.58957863  1
  Al  Al82  1  0.05329310  0.35187685  0.08957863  1
  Al  Al83  1  0.94670690  0.85187685  0.41042137  1
  Al  Al84  1  0.80329310  0.66042137  0.60187685  1
  Al  Al85  1  0.69670690  0.33957863  0.10187685  1
  Al  Al86  1  0.30329310  0.83957863  0.39812315  1
  Al  Al87  1  0.19670690  0.16042137  0.89812315  1
  Al  Al88  1  0.16042137  0.89812315  0.19670690  1
  Al  Al89  1  0.83957863  0.39812315  0.30329310  1
  Al  Al90  1  0.33957863  0.10187685  0.69670690  1
  Al  Al91  1  0.66042137  0.60187685  0.80329310  1
  Al  Al92  1  0.39812315  0.30329310  0.83957863  1
  Al  Al93  1  0.89812315  0.19670690  0.16042137  1
  Al  Al94  1  0.60187685  0.80329310  0.66042137  1
  Al  Al95  1  0.10187685  0.69670690  0.33957863  1
  Al  Al96  1  0.12500000  0.91168964  0.33831036  1
  Al  Al97  1  0.37500000  0.08831036  0.83831036  1
  Al  Al98  1  0.87500000  0.41168964  0.16168964  1
  Al  Al99  1  0.62500000  0.58831036  0.66168964  1
  Al  Al100  1  0.33831036  0.12500000  0.91168964  1
  Al  Al101  1  0.83831036  0.37500000  0.08831036  1
  Al  Al102  1  0.16168964  0.87500000  0.41168964  1
  Al  Al103  1  0.66168964  0.62500000  0.58831036  1
  Al  Al104  1  0.91168964  0.33831036  0.12500000  1
  Al  Al105  1  0.08831036  0.83831036  0.37500000  1
  Al  Al106  1  0.41168964  0.16168964  0.87500000  1
  Al  Al107  1  0.58831036  0.66168964  0.62500000  1
  Al  Al108  1  0.87500000  0.08831036  0.66168964  1
  Al  Al109  1  0.62500000  0.91168964  0.16168964  1
  Al  Al110  1  0.12500000  0.58831036  0.83831036  1
  Al  Al111  1  0.37500000  0.41168964  0.33831036  1
  Al  Al112  1  0.66168964  0.87500000  0.08831036  1
  Al  Al113  1  0.16168964  0.62500000  0.91168964  1
  Al  Al114  1  0.83831036  0.12500000  0.58831036  1
  Al  Al115  1  0.33831036  0.37500000  0.41168964  1
  Al  Al116  1  0.08831036  0.66168964  0.87500000  1
  Al  Al117  1  0.91168964  0.16168964  0.62500000  1
  Al  Al118  1  0.58831036  0.83831036  0.12500000  1
  Al  Al119  1  0.41168964  0.33831036  0.37500000  1
  Al  Al120  1  0.62500000  0.41168964  0.83831036  1
  Al  Al121  1  0.87500000  0.58831036  0.33831036  1
  Al  Al122  1  0.37500000  0.91168964  0.66168964  1
  Al  Al123  1  0.12500000  0.08831036  0.16168964  1
  Al  Al124  1  0.83831036  0.62500000  0.41168964  1
  Al  Al125  1  0.33831036  0.87500000  0.58831036  1
  Al  Al126  1  0.66168964  0.37500000  0.91168964  1
  Al  Al127  1  0.16168964  0.12500000  0.08831036  1
  Al  Al128  1  0.41168964  0.83831036  0.62500000  1
  Al  Al129  1  0.58831036  0.33831036  0.87500000  1
  Al  Al130  1  0.91168964  0.66168964  0.37500000  1
  Al  Al131  1  0.08831036  0.16168964  0.12500000  1
  Al  Al132  1  0.37500000  0.58831036  0.16168964  1
  Al  Al133  1  0.12500000  0.41168964  0.66168964  1
  Al  Al134  1  0.62500000  0.08831036  0.33831036  1
  Al  Al135  1  0.87500000  0.91168964  0.83831036  1
  Al  Al136  1  0.16168964  0.37500000  0.58831036  1
  Al  Al137  1  0.66168964  0.12500000  0.41168964  1
  Al  Al138  1  0.33831036  0.62500000  0.08831036  1
  Al  Al139  1  0.83831036  0.87500000  0.91168964  1
  Al  Al140  1  0.58831036  0.16168964  0.37500000  1
  Al  Al141  1  0.41168964  0.66168964  0.12500000  1
  Al  Al142  1  0.08831036  0.33831036  0.62500000  1
  Al  Al143  1  0.91168964  0.83831036  0.87500000  1
  Al  Al144  1  0.60235545  0.84276702  0.31986486  1
  Al  Al145  1  0.89764455  0.15723298  0.81986486  1
  Al  Al146  1  0.39764455  0.34276702  0.18013514  1
  Al  Al147  1  0.10235545  0.65723298  0.68013514  1
  Al  Al148  1  0.31986486  0.60235545  0.84276702  1
  Al  Al149  1  0.81986486  0.89764455  0.15723298  1
  Al  Al150  1  0.18013514  0.39764455  0.34276702  1
  Al  Al151  1  0.68013514  0.10235545  0.65723298  1
  Al  Al152  1  0.84276702  0.31986486  0.60235545  1
  Al  Al153  1  0.15723298  0.81986486  0.89764455  1
  Al  Al154  1  0.34276702  0.18013514  0.39764455  1
  Al  Al155  1  0.65723298  0.68013514  0.10235545  1
  Al  Al156  1  0.59276702  0.85235545  0.93013514  1
  Al  Al157  1  0.90723298  0.14764455  0.43013514  1
  Al  Al158  1  0.09276702  0.64764455  0.06986486  1
  Al  Al159  1  0.40723298  0.35235545  0.56986486  1
  Al  Al160  1  0.35235545  0.56986486  0.40723298  1
  Al  Al161  1  0.64764455  0.06986486  0.09276702  1
  Al  Al162  1  0.14764455  0.43013514  0.90723298  1
  Al  Al163  1  0.85235545  0.93013514  0.59276702  1
  Al  Al164  1  0.06986486  0.09276702  0.64764455  1
  Al  Al165  1  0.56986486  0.40723298  0.35235545  1
  Al  Al166  1  0.93013514  0.59276702  0.85235545  1
  Al  Al167  1  0.43013514  0.90723298  0.14764455  1
  Al  Al168  1  0.39764455  0.15723298  0.68013514  1
  Al  Al169  1  0.10235545  0.84276702  0.18013514  1
  Al  Al170  1  0.60235545  0.65723298  0.81986486  1
  Al  Al171  1  0.89764455  0.34276702  0.31986486  1
  Al  Al172  1  0.68013514  0.39764455  0.15723298  1
  Al  Al173  1  0.18013514  0.10235545  0.84276702  1
  Al  Al174  1  0.81986486  0.60235545  0.65723298  1
  Al  Al175  1  0.31986486  0.89764455  0.34276702  1
  Al  Al176  1  0.15723298  0.68013514  0.39764455  1
  Al  Al177  1  0.84276702  0.18013514  0.10235545  1
  Al  Al178  1  0.65723298  0.81986486  0.60235545  1
  Al  Al179  1  0.34276702  0.31986486  0.89764455  1
  Al  Al180  1  0.40723298  0.14764455  0.06986486  1
  Al  Al181  1  0.09276702  0.85235545  0.56986486  1
  Al  Al182  1  0.90723298  0.35235545  0.93013514  1
  Al  Al183  1  0.59276702  0.64764455  0.43013514  1
  Al  Al184  1  0.64764455  0.43013514  0.59276702  1
  Al  Al185  1  0.35235545  0.93013514  0.90723298  1
  Al  Al186  1  0.85235545  0.56986486  0.09276702  1
  Al  Al187  1  0.14764455  0.06986486  0.40723298  1
  Al  Al188  1  0.93013514  0.90723298  0.35235545  1
  Al  Al189  1  0.43013514  0.59276702  0.64764455  1
  Al  Al190  1  0.06986486  0.40723298  0.14764455  1
  Al  Al191  1  0.56986486  0.09276702  0.85235545  1
  Al  Al192  1  0.10235545  0.34276702  0.81986486  1
  Al  Al193  1  0.39764455  0.65723298  0.31986486  1
  Al  Al194  1  0.89764455  0.84276702  0.68013514  1
  Al  Al195  1  0.60235545  0.15723298  0.18013514  1
  Al  Al196  1  0.81986486  0.10235545  0.34276702  1
  Al  Al197  1  0.31986486  0.39764455  0.65723298  1
  Al  Al198  1  0.68013514  0.89764455  0.84276702  1
  Al  Al199  1  0.18013514  0.60235545  0.15723298  1
  Al  Al200  1  0.34276702  0.81986486  0.10235545  1
  Al  Al201  1  0.65723298  0.31986486  0.39764455  1
  Al  Al202  1  0.84276702  0.68013514  0.89764455  1
  Al  Al203  1  0.15723298  0.18013514  0.60235545  1
  Al  Al204  1  0.09276702  0.35235545  0.43013514  1
  Al  Al205  1  0.40723298  0.64764455  0.93013514  1
  Al  Al206  1  0.59276702  0.14764455  0.56986486  1
  Al  Al207  1  0.90723298  0.85235545  0.06986486  1
  Al  Al208  1  0.85235545  0.06986486  0.90723298  1
  Al  Al209  1  0.14764455  0.56986486  0.59276702  1
  Al  Al210  1  0.64764455  0.93013514  0.40723298  1
  Al  Al211  1  0.35235545  0.43013514  0.09276702  1
  Al  Al212  1  0.56986486  0.59276702  0.14764455  1
  Al  Al213  1  0.06986486  0.90723298  0.85235545  1
  Al  Al214  1  0.43013514  0.09276702  0.35235545  1
  Al  Al215  1  0.93013514  0.40723298  0.64764455  1
  Al  Al216  1  0.89764455  0.65723298  0.18013514  1
  Al  Al217  1  0.60235545  0.34276702  0.68013514  1
  Al  Al218  1  0.10235545  0.15723298  0.31986486  1
  Al  Al219  1  0.39764455  0.84276702  0.81986486  1
  Al  Al220  1  0.18013514  0.89764455  0.65723298  1
  Al  Al221  1  0.68013514  0.60235545  0.34276702  1
  Al  Al222  1  0.31986486  0.10235545  0.15723298  1
  Al  Al223  1  0.81986486  0.39764455  0.84276702  1
  Al  Al224  1  0.65723298  0.18013514  0.89764455  1
  Al  Al225  1  0.34276702  0.68013514  0.60235545  1
  Al  Al226  1  0.15723298  0.31986486  0.10235545  1
  Al  Al227  1  0.84276702  0.81986486  0.39764455  1
  Al  Al228  1  0.90723298  0.64764455  0.56986486  1
  Al  Al229  1  0.59276702  0.35235545  0.06986486  1
  Al  Al230  1  0.40723298  0.85235545  0.43013514  1
  Al  Al231  1  0.09276702  0.14764455  0.93013514  1
  Al  Al232  1  0.14764455  0.93013514  0.09276702  1
  Al  Al233  1  0.85235545  0.43013514  0.40723298  1
  Al  Al234  1  0.35235545  0.06986486  0.59276702  1
  Al  Al235  1  0.64764455  0.56986486  0.90723298  1
  Al  Al236  1  0.43013514  0.40723298  0.85235545  1
  Al  Al237  1  0.93013514  0.09276702  0.14764455  1
  Al  Al238  1  0.56986486  0.90723298  0.64764455  1
  Al  Al239  1  0.06986486  0.59276702  0.35235545  1
  Al  Al240  1  0.12500000  0.95836756  0.29163244  1
  Al  Al241  1  0.37500000  0.04163244  0.79163244  1
  Al  Al242  1  0.87500000  0.45836756  0.20836756  1
  Al  Al243  1  0.62500000  0.54163244  0.70836756  1
  Al  Al244  1  0.29163244  0.12500000  0.95836756  1
  Al  Al245  1  0.79163244  0.37500000  0.04163244  1
  Al  Al246  1  0.20836756  0.87500000  0.45836756  1
  Al  Al247  1  0.70836756  0.62500000  0.54163244  1
  Al  Al248  1  0.95836756  0.29163244  0.12500000  1
  Al  Al249  1  0.04163244  0.79163244  0.37500000  1
  Al  Al250  1  0.45836756  0.20836756  0.87500000  1
  Al  Al251  1  0.54163244  0.70836756  0.62500000  1
  Al  Al252  1  0.87500000  0.04163244  0.70836756  1
  Al  Al253  1  0.62500000  0.95836756  0.20836756  1
  Al  Al254  1  0.12500000  0.54163244  0.79163244  1
  Al  Al255  1  0.37500000  0.45836756  0.29163244  1
  Al  Al256  1  0.70836756  0.87500000  0.04163244  1
  Al  Al257  1  0.20836756  0.62500000  0.95836756  1
  Al  Al258  1  0.79163244  0.12500000  0.54163244  1
  Al  Al259  1  0.29163244  0.37500000  0.45836756  1
  Al  Al260  1  0.04163244  0.70836756  0.87500000  1
  Al  Al261  1  0.95836756  0.20836756  0.62500000  1
  Al  Al262  1  0.54163244  0.79163244  0.12500000  1
  Al  Al263  1  0.45836756  0.29163244  0.37500000  1
  Al  Al264  1  0.62500000  0.45836756  0.79163244  1
  Al  Al265  1  0.87500000  0.54163244  0.29163244  1
  Al  Al266  1  0.37500000  0.95836756  0.70836756  1
  Al  Al267  1  0.12500000  0.04163244  0.20836756  1
  Al  Al268  1  0.79163244  0.62500000  0.45836756  1
  Al  Al269  1  0.29163244  0.87500000  0.54163244  1
  Al  Al270  1  0.70836756  0.37500000  0.95836756  1
  Al  Al271  1  0.20836756  0.12500000  0.04163244  1
  Al  Al272  1  0.45836756  0.79163244  0.62500000  1
  Al  Al273  1  0.54163244  0.29163244  0.87500000  1
  Al  Al274  1  0.95836756  0.70836756  0.37500000  1
  Al  Al275  1  0.04163244  0.20836756  0.12500000  1
  Al  Al276  1  0.37500000  0.54163244  0.20836756  1
  Al  Al277  1  0.12500000  0.45836756  0.70836756  1
  Al  Al278  1  0.62500000  0.04163244  0.29163244  1
  Al  Al279  1  0.87500000  0.95836756  0.79163244  1
  Al  Al280  1  0.20836756  0.37500000  0.54163244  1
  Al  Al281  1  0.70836756  0.12500000  0.45836756  1
  Al  Al282  1  0.29163244  0.62500000  0.04163244  1
  Al  Al283  1  0.79163244  0.87500000  0.95836756  1
  Al  Al284  1  0.54163244  0.20836756  0.37500000  1
  Al  Al285  1  0.45836756  0.70836756  0.12500000  1
  Al  Al286  1  0.04163244  0.29163244  0.62500000  1
  Al  Al287  1  0.95836756  0.79163244  0.87500000  1
  Br  Br288  1  0.87933104  0.43988521  0.11083562  1
  Br  Br289  1  -0.37933104  -0.43988521  0.61083562  1
  Br  Br290  1  -0.87933104  0.93988521  0.38916438  1
  Br  Br291  1  1.37933104  0.06011479  -0.11083562  1
  Br  Br292  1  0.11083562  0.87933104  0.43988521  1
  Br  Br293  1  0.61083562  -0.37933104  -0.43988521  1
  Br  Br294  1  0.38916438  -0.87933104  0.93988521  1
  Br  Br295  1  -0.11083562  1.37933104  0.06011479  1
  Br  Br296  1  0.43988521  0.11083562  0.87933104  1
  Br  Br297  1  -0.43988521  0.61083562  -0.37933104  1
  Br  Br298  1  0.93988521  0.38916438  -0.87933104  1
  Br  Br299  1  0.06011479  -0.11083562  1.37933104  1
  Br  Br300  1  1.18988521  1.12933104  0.13916438  1
  Br  Br301  1  0.31011479  -0.12933104  0.63916438  1
  Br  Br302  1  0.68988521  -0.62933104  0.86083562  1
  Br  Br303  1  -0.18988521  1.62933104  0.36083562  1
  Br  Br304  1  1.62933104  0.36083562  -0.18988521  1
  Br  Br305  1  -0.62933104  0.86083562  0.68988521  1
  Br  Br306  1  -0.12933104  0.63916438  0.31011479  1
  Br  Br307  1  1.12933104  0.13916438  1.18988521  1
  Br  Br308  1  0.86083562  0.68988521  -0.62933104  1
  Br  Br309  1  0.36083562  -0.18988521  1.62933104  1
  Br  Br310  1  0.13916438  1.18988521  1.12933104  1
  Br  Br311  1  0.63916438  0.31011479  -0.12933104  1
  Br  Br312  1  -0.87933104  -0.43988521  -0.11083562  1
  Br  Br313  1  1.37933104  0.43988521  0.38916438  1
  Br  Br314  1  0.87933104  0.06011479  0.61083562  1
  Br  Br315  1  -0.37933104  0.93988521  0.11083562  1
  Br  Br316  1  -0.11083562  -0.87933104  -0.43988521  1
  Br  Br317  1  0.38916438  1.37933104  0.43988521  1
  Br  Br318  1  0.61083562  0.87933104  0.06011479  1
  Br  Br319  1  0.11083562  -0.37933104  0.93988521  1
  Br  Br320  1  -0.43988521  -0.11083562  -0.87933104  1
  Br  Br321  1  0.43988521  0.38916438  1.37933104  1
  Br  Br322  1  0.06011479  0.61083562  0.87933104  1
  Br  Br323  1  0.93988521  0.11083562  -0.37933104  1
  Br  Br324  1  -0.18988521  -0.12933104  0.86083562  1
  Br  Br325  1  0.68988521  1.12933104  0.36083562  1
  Br  Br326  1  0.31011479  1.62933104  0.13916438  1
  Br  Br327  1  1.18988521  -0.62933104  0.63916438  1
  Br  Br328  1  -0.62933104  0.63916438  1.18988521  1
  Br  Br329  1  1.62933104  0.13916438  0.31011479  1
  Br  Br330  1  1.12933104  0.36083562  0.68988521  1
  Br  Br331  1  -0.12933104  0.86083562  -0.18988521  1
  Br  Br332  1  0.13916438  0.31011479  1.62933104  1
  Br  Br333  1  0.63916438  1.18988521  -0.62933104  1
  Br  Br334  1  0.86083562  -0.18988521  -0.12933104  1
  Br  Br335  1  0.36083562  0.68988521  1.12933104  1
  Br  Br336  1  1.37933104  0.93988521  0.61083562  1
  Br  Br337  1  0.12066896  0.06011479  1.11083562  1
  Br  Br338  1  -0.37933104  1.43988521  0.88916438  1
  Br  Br339  1  1.87933104  0.56011479  0.38916438  1
  Br  Br340  1  0.61083562  1.37933104  0.93988521  1
  Br  Br341  1  1.11083562  0.12066896  0.06011479  1
  Br  Br342  1  0.88916438  -0.37933104  1.43988521  1
  Br  Br343  1  0.38916438  1.87933104  0.56011479  1
  Br  Br344  1  0.93988521  0.61083562  1.37933104  1
  Br  Br345  1  0.06011479  1.11083562  0.12066896  1
  Br  Br346  1  1.43988521  0.88916438  -0.37933104  1
  Br  Br347  1  0.56011479  0.38916438  1.87933104  1
  Br  Br348  1  1.68988521  1.62933104  0.63916438  1
  Br  Br349  1  0.81011479  0.37066896  1.13916438  1
  Br  Br350  1  1.18988521  -0.12933104  1.36083562  1
  Br  Br351  1  0.31011479  2.12933104  0.86083562  1
  Br  Br352  1  2.12933104  0.86083562  0.31011479  1
  Br  Br353  1  -0.12933104  1.36083562  1.18988521  1
  Br  Br354  1  0.37066896  1.13916438  0.81011479  1
  Br  Br355  1  1.62933104  0.63916438  1.68988521  1
  Br  Br356  1  1.36083562  1.18988521  -0.12933104  1
  Br  Br357  1  0.86083562  0.31011479  2.12933104  1
  Br  Br358  1  0.63916438  1.68988521  1.62933104  1
  Br  Br359  1  1.13916438  0.81011479  0.37066896  1
  Br  Br360  1  -0.37933104  0.06011479  0.38916438  1
  Br  Br361  1  1.87933104  0.93988521  0.88916438  1
  Br  Br362  1  1.37933104  0.56011479  1.11083562  1
  Br  Br363  1  0.12066896  1.43988521  0.61083562  1
  Br  Br364  1  0.38916438  -0.37933104  0.06011479  1
  Br  Br365  1  0.88916438  1.87933104  0.93988521  1
  Br  Br366  1  1.11083562  1.37933104  0.56011479  1
  Br  Br367  1  0.61083562  0.12066896  1.43988521  1
  Br  Br368  1  0.06011479  0.38916438  -0.37933104  1
  Br  Br369  1  0.93988521  0.88916438  1.87933104  1
  Br  Br370  1  0.56011479  1.11083562  1.37933104  1
  Br  Br371  1  1.43988521  0.61083562  0.12066896  1
  Br  Br372  1  0.31011479  0.37066896  1.36083562  1
  Br  Br373  1  1.18988521  1.62933104  0.86083562  1
  Br  Br374  1  0.81011479  2.12933104  0.63916438  1
  Br  Br375  1  1.68988521  -0.12933104  1.13916438  1
  Br  Br376  1  -0.12933104  1.13916438  1.68988521  1
  Br  Br377  1  2.12933104  0.63916438  0.81011479  1
  Br  Br378  1  1.62933104  0.86083562  1.18988521  1
  Br  Br379  1  0.37066896  1.36083562  0.31011479  1
  Br  Br380  1  0.63916438  0.81011479  2.12933104  1
  Br  Br381  1  1.13916438  1.68988521  -0.12933104  1
  Br  Br382  1  1.36083562  0.31011479  0.37066896  1
  Br  Br383  1  0.86083562  1.18988521  1.62933104  1
  Br  Br384  1  0.37500000  -0.00000000  0.25000000  1
  Br  Br385  1  0.12500000  0.00000000  0.75000000  1
  Br  Br386  1  0.25000000  0.37500000  -0.00000000  1
  Br  Br387  1  0.75000000  0.12500000  -0.00000000  1
  Br  Br388  1  0.00000000  0.25000000  0.37500000  1
  Br  Br389  1  0.00000000  0.75000000  0.12500000  1
  Br  Br390  1  0.75000000  0.62500000  -0.00000000  1
  Br  Br391  1  0.75000000  0.37500000  0.50000000  1
  Br  Br392  1  0.12500000  0.50000000  0.25000000  1
  Br  Br393  1  0.87500000  -0.00000000  0.25000000  1
  Br  Br394  1  0.00000000  0.25000000  0.87500000  1
  Br  Br395  1  0.50000000  0.25000000  0.12500000  1
  Br  Br396  1  0.87500000  0.50000000  0.75000000  1
  Br  Br397  1  0.62500000  0.50000000  0.25000000  1
  Br  Br398  1  0.75000000  0.87500000  0.50000000  1
  Br  Br399  1  0.25000000  0.62500000  0.50000000  1
  Br  Br400  1  0.50000000  0.75000000  0.87500000  1
  Br  Br401  1  0.50000000  0.25000000  0.62500000  1
  Br  Br402  1  0.25000000  0.12500000  0.50000000  1
  Br  Br403  1  0.25000000  0.87500000  -0.00000000  1
  Br  Br404  1  0.62500000  -0.00000000  0.75000000  1
  Br  Br405  1  0.37500000  0.50000000  0.75000000  1
  Br  Br406  1  0.50000000  0.75000000  0.37500000  1
  Br  Br407  1  0.00000000  0.75000000  0.62500000  1
  Br  Br408  1  0.12500000  0.00000000  0.25000000  1
  Br  Br409  1  0.37500000  -0.00000000  0.75000000  1
  Br  Br410  1  0.25000000  0.12500000  -0.00000000  1
  Br  Br411  1  0.75000000  0.37500000  -0.00000000  1
  Br  Br412  1  0.00000000  0.25000000  0.12500000  1
  Br  Br413  1  0.00000000  0.75000000  0.37500000  1
  Br  Br414  1  0.87500000  -0.00000000  0.75000000  1
  Br  Br415  1  0.62500000  -0.00000000  0.25000000  1
  Br  Br416  1  0.75000000  0.87500000  -0.00000000  1
  Br  Br417  1  0.25000000  0.62500000  -0.00000000  1
  Br  Br418  1  0.00000000  0.75000000  0.87500000  1
  Br  Br419  1  0.00000000  0.25000000  0.62500000  1
  Br  Br420  1  0.62500000  0.50000000  0.75000000  1
  Br  Br421  1  0.87500000  0.50000000  0.25000000  1
  Br  Br422  1  0.75000000  0.62500000  0.50000000  1
  Br  Br423  1  0.25000000  0.87500000  0.50000000  1
  Br  Br424  1  0.50000000  0.75000000  0.62500000  1
  Br  Br425  1  0.50000000  0.25000000  0.87500000  1
  Br  Br426  1  0.37500000  0.50000000  0.25000000  1
  Br  Br427  1  0.12500000  0.50000000  0.75000000  1
  Br  Br428  1  0.25000000  0.37500000  0.50000000  1
  Br  Br429  1  0.75000000  0.12500000  0.50000000  1
  Br  Br430  1  0.50000000  0.25000000  0.37500000  1
  Br  Br431  1  0.50000000  0.75000000  0.12500000  1
  Br  Br432  1  0.12500000  0.12500000  0.12500000  1
  Br  Br433  1  0.37500000  0.87500000  0.62500000  1
  Br  Br434  1  0.87500000  0.62500000  0.37500000  1
  Br  Br435  1  0.62500000  0.37500000  0.87500000  1
  Br  Br436  1  0.87500000  0.87500000  0.87500000  1
  Br  Br437  1  0.62500000  0.12500000  0.37500000  1
  Br  Br438  1  0.12500000  0.37500000  0.62500000  1
  Br  Br439  1  0.37500000  0.62500000  0.12500000  1
  Br  Br440  1  0.62500000  0.62500000  0.62500000  1
  Br  Br441  1  0.87500000  0.37500000  0.12500000  1
  Br  Br442  1  0.37500000  0.12500000  0.87500000  1
  Br  Br443  1  0.12500000  0.87500000  0.37500000  1
  Br  Br444  1  0.37500000  0.37500000  0.37500000  1
  Br  Br445  1  0.12500000  0.62500000  0.87500000  1
  Br  Br446  1  0.62500000  0.87500000  0.12500000  1
  Br  Br447  1  0.87500000  0.12500000  0.62500000  1
  Br  Br448  1  0.95794365  0.95794365  0.95794365  1
  Br  Br449  1  0.54205635  0.04205635  0.45794365  1
  Br  Br450  1  0.04205635  0.45794365  0.54205635  1
  Br  Br451  1  0.45794365  0.54205635  0.04205635  1
  Br  Br452  1  0.70794365  0.20794365  0.29205635  1
  Br  Br453  1  0.79205635  0.79205635  0.79205635  1
  Br  Br454  1  0.20794365  0.29205635  0.70794365  1
  Br  Br455  1  0.29205635  0.70794365  0.20794365  1
  Br  Br456  1  0.04205635  0.04205635  0.04205635  1
  Br  Br457  1  0.45794365  0.95794365  0.54205635  1
  Br  Br458  1  0.95794365  0.54205635  0.45794365  1
  Br  Br459  1  0.54205635  0.45794365  0.95794365  1
  Br  Br460  1  0.29205635  0.79205635  0.70794365  1
  Br  Br461  1  0.20794365  0.20794365  0.20794365  1
  Br  Br462  1  0.79205635  0.70794365  0.29205635  1
  Br  Br463  1  0.70794365  0.29205635  0.79205635  1
  Br  Br464  1  0.45794365  0.45794365  0.45794365  1
  Br  Br465  1  0.04205635  0.54205635  0.95794365  1
  Br  Br466  1  0.54205635  0.95794365  0.04205635  1
  Br  Br467  1  0.95794365  0.04205635  0.54205635  1
  Br  Br468  1  0.20794365  0.70794365  0.79205635  1
  Br  Br469  1  0.29205635  0.29205635  0.29205635  1
  Br  Br470  1  0.70794365  0.79205635  0.20794365  1
  Br  Br471  1  0.79205635  0.20794365  0.70794365  1
  Br  Br472  1  0.54205635  0.54205635  0.54205635  1
  Br  Br473  1  0.95794365  0.45794365  0.04205635  1
  Br  Br474  1  0.45794365  0.04205635  0.95794365  1
  Br  Br475  1  0.04205635  0.95794365  0.45794365  1
  Br  Br476  1  0.79205635  0.29205635  0.20794365  1
  Br  Br477  1  0.70794365  0.70794365  0.70794365  1
  Br  Br478  1  0.29205635  0.20794365  0.79205635  1
  Br  Br479  1  0.20794365  0.79205635  0.29205635  1
  Li  Li480  1  0.38995158  0.69095887  0.35639331  1
  Li  Li481  1  0.11004842  0.30904113  0.85639331  1
  Li  Li482  1  0.61004842  0.19095887  0.14360669  1
  Li  Li483  1  0.88995158  0.80904113  0.64360669  1
  Li  Li484  1  0.35639331  0.38995158  0.69095887  1
  Li  Li485  1  0.85639331  0.11004842  0.30904113  1
  Li  Li486  1  0.14360669  0.61004842  0.19095887  1
  Li  Li487  1  0.64360669  0.88995158  0.80904113  1
  Li  Li488  1  0.69095887  0.35639331  0.38995158  1
  Li  Li489  1  0.30904113  0.85639331  0.11004842  1
  Li  Li490  1  0.19095887  0.14360669  0.61004842  1
  Li  Li491  1  0.80904113  0.64360669  0.88995158  1
  Li  Li492  1  0.44095887  0.63995158  0.89360669  1
  Li  Li493  1  0.05904113  0.36004842  0.39360669  1
  Li  Li494  1  0.94095887  0.86004842  0.10639331  1
  Li  Li495  1  0.55904113  0.13995158  0.60639331  1
  Li  Li496  1  0.13995158  0.60639331  0.55904113  1
  Li  Li497  1  0.86004842  0.10639331  0.94095887  1
  Li  Li498  1  0.36004842  0.39360669  0.05904113  1
  Li  Li499  1  0.63995158  0.89360669  0.44095887  1
  Li  Li500  1  0.10639331  0.94095887  0.86004842  1
  Li  Li501  1  0.60639331  0.55904113  0.13995158  1
  Li  Li502  1  0.89360669  0.44095887  0.63995158  1
  Li  Li503  1  0.39360669  0.05904113  0.36004842  1
  Li  Li504  1  0.61004842  0.30904113  0.64360669  1
  Li  Li505  1  0.88995158  0.69095887  0.14360669  1
  Li  Li506  1  0.38995158  0.80904113  0.85639331  1
  Li  Li507  1  0.11004842  0.19095887  0.35639331  1
  Li  Li508  1  0.64360669  0.61004842  0.30904113  1
  Li  Li509  1  0.14360669  0.88995158  0.69095887  1
  Li  Li510  1  0.85639331  0.38995158  0.80904113  1
  Li  Li511  1  0.35639331  0.11004842  0.19095887  1
  Li  Li512  1  0.30904113  0.64360669  0.61004842  1
  Li  Li513  1  0.69095887  0.14360669  0.88995158  1
  Li  Li514  1  0.80904113  0.85639331  0.38995158  1
  Li  Li515  1  0.19095887  0.35639331  0.11004842  1
  Li  Li516  1  0.55904113  0.36004842  0.10639331  1
  Li  Li517  1  0.94095887  0.63995158  0.60639331  1
  Li  Li518  1  0.05904113  0.13995158  0.89360669  1
  Li  Li519  1  0.44095887  0.86004842  0.39360669  1
  Li  Li520  1  0.86004842  0.39360669  0.44095887  1
  Li  Li521  1  0.13995158  0.89360669  0.05904113  1
  Li  Li522  1  0.63995158  0.60639331  0.94095887  1
  Li  Li523  1  0.36004842  0.10639331  0.55904113  1
  Li  Li524  1  0.89360669  0.05904113  0.13995158  1
  Li  Li525  1  0.39360669  0.44095887  0.86004842  1
  Li  Li526  1  0.10639331  0.55904113  0.36004842  1
  Li  Li527  1  0.60639331  0.94095887  0.63995158  1
  Li  Li528  1  0.88995158  0.19095887  0.85639331  1
  Li  Li529  1  0.61004842  0.80904113  0.35639331  1
  Li  Li530  1  0.11004842  0.69095887  0.64360669  1
  Li  Li531  1  0.38995158  0.30904113  0.14360669  1
  Li  Li532  1  0.85639331  0.88995158  0.19095887  1
  Li  Li533  1  0.35639331  0.61004842  0.80904113  1
  Li  Li534  1  0.64360669  0.11004842  0.69095887  1
  Li  Li535  1  0.14360669  0.38995158  0.30904113  1
  Li  Li536  1  0.19095887  0.85639331  0.88995158  1
  Li  Li537  1  0.80904113  0.35639331  0.61004842  1
  Li  Li538  1  0.69095887  0.64360669  0.11004842  1
  Li  Li539  1  0.30904113  0.14360669  0.38995158  1
  Li  Li540  1  0.94095887  0.13995158  0.39360669  1
  Li  Li541  1  0.55904113  0.86004842  0.89360669  1
  Li  Li542  1  0.44095887  0.36004842  0.60639331  1
  Li  Li543  1  0.05904113  0.63995158  0.10639331  1
  Li  Li544  1  0.63995158  0.10639331  0.05904113  1
  Li  Li545  1  0.36004842  0.60639331  0.44095887  1
  Li  Li546  1  0.86004842  0.89360669  0.55904113  1
  Li  Li547  1  0.13995158  0.39360669  0.94095887  1
  Li  Li548  1  0.60639331  0.44095887  0.36004842  1
  Li  Li549  1  0.10639331  0.05904113  0.63995158  1
  Li  Li550  1  0.39360669  0.94095887  0.13995158  1
  Li  Li551  1  0.89360669  0.55904113  0.86004842  1
  Li  Li552  1  0.11004842  0.80904113  0.14360669  1
  Li  Li553  1  0.38995158  0.19095887  0.64360669  1
  Li  Li554  1  0.88995158  0.30904113  0.35639331  1
  Li  Li555  1  0.61004842  0.69095887  0.85639331  1
  Li  Li556  1  0.14360669  0.11004842  0.80904113  1
  Li  Li557  1  0.64360669  0.38995158  0.19095887  1
  Li  Li558  1  0.35639331  0.88995158  0.30904113  1
  Li  Li559  1  0.85639331  0.61004842  0.69095887  1
  Li  Li560  1  0.80904113  0.14360669  0.11004842  1
  Li  Li561  1  0.19095887  0.64360669  0.38995158  1
  Li  Li562  1  0.30904113  0.35639331  0.88995158  1
  Li  Li563  1  0.69095887  0.85639331  0.61004842  1
  Li  Li564  1  0.05904113  0.86004842  0.60639331  1
  Li  Li565  1  0.44095887  0.13995158  0.10639331  1
  Li  Li566  1  0.55904113  0.63995158  0.39360669  1
  Li  Li567  1  0.94095887  0.36004842  0.89360669  1
  Li  Li568  1  0.36004842  0.89360669  0.94095887  1
  Li  Li569  1  0.63995158  0.39360669  0.55904113  1
  Li  Li570  1  0.13995158  0.10639331  0.44095887  1
  Li  Li571  1  0.86004842  0.60639331  0.05904113  1
  Li  Li572  1  0.39360669  0.55904113  0.63995158  1
  Li  Li573  1  0.89360669  0.94095887  0.36004842  1
  Li  Li574  1  0.60639331  0.05904113  0.86004842  1
  Li  Li575  1  0.10639331  0.44095887  0.13995158  1
  Te  Te576  1  0.30051572  0.53987278  0.22480401  1
  Te  Te577  1  0.19948428  0.46012722  0.72480401  1
  Te  Te578  1  0.69948428  0.03987278  0.27519599  1
  Te  Te579  1  0.80051572  0.96012722  0.77519599  1
  Te  Te580  1  0.22480401  0.30051572  0.53987278  1
  Te  Te581  1  0.72480401  0.19948428  0.46012722  1
  Te  Te582  1  0.27519599  0.69948428  0.03987278  1
  Te  Te583  1  0.77519599  0.80051572  0.96012722  1
  Te  Te584  1  0.53987278  0.22480401  0.30051572  1
  Te  Te585  1  0.46012722  0.72480401  0.19948428  1
  Te  Te586  1  0.03987278  0.27519599  0.69948428  1
  Te  Te587  1  0.96012722  0.77519599  0.80051572  1
  Te  Te588  1  0.28987278  0.55051572  0.02519599  1
  Te  Te589  1  0.21012722  0.44948428  0.52519599  1
  Te  Te590  1  0.78987278  0.94948428  0.97480401  1
  Te  Te591  1  0.71012722  0.05051572  0.47480401  1
  Te  Te592  1  0.05051572  0.47480401  0.71012722  1
  Te  Te593  1  0.94948428  0.97480401  0.78987278  1
  Te  Te594  1  0.44948428  0.52519599  0.21012722  1
  Te  Te595  1  0.55051572  0.02519599  0.28987278  1
  Te  Te596  1  0.97480401  0.78987278  0.94948428  1
  Te  Te597  1  0.47480401  0.71012722  0.05051572  1
  Te  Te598  1  0.02519599  0.28987278  0.55051572  1
  Te  Te599  1  0.52519599  0.21012722  0.44948428  1
  Te  Te600  1  0.69948428  0.46012722  0.77519599  1
  Te  Te601  1  0.80051572  0.53987278  0.27519599  1
  Te  Te602  1  0.30051572  0.96012722  0.72480401  1
  Te  Te603  1  0.19948428  0.03987278  0.22480401  1
  Te  Te604  1  0.77519599  0.69948428  0.46012722  1
  Te  Te605  1  0.27519599  0.80051572  0.53987278  1
  Te  Te606  1  0.72480401  0.30051572  0.96012722  1
  Te  Te607  1  0.22480401  0.19948428  0.03987278  1
  Te  Te608  1  0.46012722  0.77519599  0.69948428  1
  Te  Te609  1  0.53987278  0.27519599  0.80051572  1
  Te  Te610  1  0.96012722  0.72480401  0.30051572  1
  Te  Te611  1  0.03987278  0.22480401  0.19948428  1
  Te  Te612  1  0.71012722  0.44948428  0.97480401  1
  Te  Te613  1  0.78987278  0.55051572  0.47480401  1
  Te  Te614  1  0.21012722  0.05051572  0.02519599  1
  Te  Te615  1  0.28987278  0.94948428  0.52519599  1
  Te  Te616  1  0.94948428  0.52519599  0.28987278  1
  Te  Te617  1  0.05051572  0.02519599  0.21012722  1
  Te  Te618  1  0.55051572  0.47480401  0.78987278  1
  Te  Te619  1  0.44948428  0.97480401  0.71012722  1
  Te  Te620  1  0.02519599  0.21012722  0.05051572  1
  Te  Te621  1  0.52519599  0.28987278  0.94948428  1
  Te  Te622  1  0.97480401  0.71012722  0.44948428  1
  Te  Te623  1  0.47480401  0.78987278  0.55051572  1
  Te  Te624  1  0.80051572  0.03987278  0.72480401  1
  Te  Te625  1  0.69948428  0.96012722  0.22480401  1
  Te  Te626  1  0.19948428  0.53987278  0.77519599  1
  Te  Te627  1  0.30051572  0.46012722  0.27519599  1
  Te  Te628  1  0.72480401  0.80051572  0.03987278  1
  Te  Te629  1  0.22480401  0.69948428  0.96012722  1
  Te  Te630  1  0.77519599  0.19948428  0.53987278  1
  Te  Te631  1  0.27519599  0.30051572  0.46012722  1
  Te  Te632  1  0.03987278  0.72480401  0.80051572  1
  Te  Te633  1  0.96012722  0.22480401  0.69948428  1
  Te  Te634  1  0.53987278  0.77519599  0.19948428  1
  Te  Te635  1  0.46012722  0.27519599  0.30051572  1
  Te  Te636  1  0.78987278  0.05051572  0.52519599  1
  Te  Te637  1  0.71012722  0.94948428  0.02519599  1
  Te  Te638  1  0.28987278  0.44948428  0.47480401  1
  Te  Te639  1  0.21012722  0.55051572  0.97480401  1
  Te  Te640  1  0.55051572  0.97480401  0.21012722  1
  Te  Te641  1  0.44948428  0.47480401  0.28987278  1
  Te  Te642  1  0.94948428  0.02519599  0.71012722  1
  Te  Te643  1  0.05051572  0.52519599  0.78987278  1
  Te  Te644  1  0.47480401  0.28987278  0.44948428  1
  Te  Te645  1  0.97480401  0.21012722  0.55051572  1
  Te  Te646  1  0.52519599  0.78987278  0.05051572  1
  Te  Te647  1  0.02519599  0.71012722  0.94948428  1
  Te  Te648  1  0.19948428  0.96012722  0.27519599  1
  Te  Te649  1  0.30051572  0.03987278  0.77519599  1
  Te  Te650  1  0.80051572  0.46012722  0.22480401  1
  Te  Te651  1  0.69948428  0.53987278  0.72480401  1
  Te  Te652  1  0.27519599  0.19948428  0.96012722  1
  Te  Te653  1  0.77519599  0.30051572  0.03987278  1
  Te  Te654  1  0.22480401  0.80051572  0.46012722  1
  Te  Te655  1  0.72480401  0.69948428  0.53987278  1
  Te  Te656  1  0.96012722  0.27519599  0.19948428  1
  Te  Te657  1  0.03987278  0.77519599  0.30051572  1
  Te  Te658  1  0.46012722  0.22480401  0.80051572  1
  Te  Te659  1  0.53987278  0.72480401  0.69948428  1
  Te  Te660  1  0.21012722  0.94948428  0.47480401  1
  Te  Te661  1  0.28987278  0.05051572  0.97480401  1
  Te  Te662  1  0.71012722  0.55051572  0.52519599  1
  Te  Te663  1  0.78987278  0.44948428  0.02519599  1
  Te  Te664  1  0.44948428  0.02519599  0.78987278  1
  Te  Te665  1  0.55051572  0.52519599  0.71012722  1
  Te  Te666  1  0.05051572  0.97480401  0.28987278  1
  Te  Te667  1  0.94948428  0.47480401  0.21012722  1
  Te  Te668  1  0.52519599  0.71012722  0.55051572  1
  Te  Te669  1  0.02519599  0.78987278  0.44948428  1
  Te  Te670  1  0.47480401  0.21012722  0.94948428  1
  Te  Te671  1  0.97480401  0.28987278  0.05051572  1
  Te  Te672  1  0.96690240  0.42651167  0.43587560  1
  Te  Te673  1  0.53309760  0.57348833  0.93587560  1
  Te  Te674  1  0.03309760  0.92651167  0.06412440  1
  Te  Te675  1  0.46690240  0.07348833  0.56412440  1
  Te  Te676  1  0.43587560  0.96690240  0.42651167  1
  Te  Te677  1  0.93587560  0.53309760  0.57348833  1
  Te  Te678  1  0.06412440  0.03309760  0.92651167  1
  Te  Te679  1  0.56412440  0.46690240  0.07348833  1
  Te  Te680  1  0.42651167  0.43587560  0.96690240  1
  Te  Te681  1  0.57348833  0.93587560  0.53309760  1
  Te  Te682  1  0.92651167  0.06412440  0.03309760  1
  Te  Te683  1  0.07348833  0.56412440  0.46690240  1
  Te  Te684  1  0.17651167  0.21690240  0.81412440  1
  Te  Te685  1  0.32348833  0.78309760  0.31412440  1
  Te  Te686  1  0.67651167  0.28309760  0.18587560  1
  Te  Te687  1  0.82348833  0.71690240  0.68587560  1
  Te  Te688  1  0.71690240  0.68587560  0.82348833  1
  Te  Te689  1  0.28309760  0.18587560  0.67651167  1
  Te  Te690  1  0.78309760  0.31412440  0.32348833  1
  Te  Te691  1  0.21690240  0.81412440  0.17651167  1
  Te  Te692  1  0.18587560  0.67651167  0.28309760  1
  Te  Te693  1  0.68587560  0.82348833  0.71690240  1
  Te  Te694  1  0.81412440  0.17651167  0.21690240  1
  Te  Te695  1  0.31412440  0.32348833  0.78309760  1
  Te  Te696  1  0.03309760  0.57348833  0.56412440  1
  Te  Te697  1  0.46690240  0.42651167  0.06412440  1
  Te  Te698  1  0.96690240  0.07348833  0.93587560  1
  Te  Te699  1  0.53309760  0.92651167  0.43587560  1
  Te  Te700  1  0.56412440  0.03309760  0.57348833  1
  Te  Te701  1  0.06412440  0.46690240  0.42651167  1
  Te  Te702  1  0.93587560  0.96690240  0.07348833  1
  Te  Te703  1  0.43587560  0.53309760  0.92651167  1
  Te  Te704  1  0.57348833  0.56412440  0.03309760  1
  Te  Te705  1  0.42651167  0.06412440  0.46690240  1
  Te  Te706  1  0.07348833  0.93587560  0.96690240  1
  Te  Te707  1  0.92651167  0.43587560  0.53309760  1
  Te  Te708  1  0.82348833  0.78309760  0.18587560  1
  Te  Te709  1  0.67651167  0.21690240  0.68587560  1
  Te  Te710  1  0.32348833  0.71690240  0.81412440  1
  Te  Te711  1  0.17651167  0.28309760  0.31412440  1
  Te  Te712  1  0.28309760  0.31412440  0.17651167  1
  Te  Te713  1  0.71690240  0.81412440  0.32348833  1
  Te  Te714  1  0.21690240  0.68587560  0.67651167  1
  Te  Te715  1  0.78309760  0.18587560  0.82348833  1
  Te  Te716  1  0.81412440  0.32348833  0.71690240  1
  Te  Te717  1  0.31412440  0.17651167  0.28309760  1
  Te  Te718  1  0.18587560  0.82348833  0.78309760  1
  Te  Te719  1  0.68587560  0.67651167  0.21690240  1
  Te  Te720  1  0.46690240  0.92651167  0.93587560  1
  Te  Te721  1  0.03309760  0.07348833  0.43587560  1
  Te  Te722  1  0.53309760  0.42651167  0.56412440  1
  Te  Te723  1  0.96690240  0.57348833  0.06412440  1
  Te  Te724  1  0.93587560  0.46690240  0.92651167  1
  Te  Te725  1  0.43587560  0.03309760  0.07348833  1
  Te  Te726  1  0.56412440  0.53309760  0.42651167  1
  Te  Te727  1  0.06412440  0.96690240  0.57348833  1
  Te  Te728  1  0.92651167  0.93587560  0.46690240  1
  Te  Te729  1  0.07348833  0.43587560  0.03309760  1
  Te  Te730  1  0.42651167  0.56412440  0.53309760  1
  Te  Te731  1  0.57348833  0.06412440  0.96690240  1
  Te  Te732  1  0.67651167  0.71690240  0.31412440  1
  Te  Te733  1  0.82348833  0.28309760  0.81412440  1
  Te  Te734  1  0.17651167  0.78309760  0.68587560  1
  Te  Te735  1  0.32348833  0.21690240  0.18587560  1
  Te  Te736  1  0.21690240  0.18587560  0.32348833  1
  Te  Te737  1  0.78309760  0.68587560  0.17651167  1
  Te  Te738  1  0.28309760  0.81412440  0.82348833  1
  Te  Te739  1  0.71690240  0.31412440  0.67651167  1
  Te  Te740  1  0.68587560  0.17651167  0.78309760  1
  Te  Te741  1  0.18587560  0.32348833  0.21690240  1
  Te  Te742  1  0.31412440  0.67651167  0.71690240  1
  Te  Te743  1  0.81412440  0.82348833  0.28309760  1
  Te  Te744  1  0.53309760  0.07348833  0.06412440  1
  Te  Te745  1  0.96690240  0.92651167  0.56412440  1
  Te  Te746  1  0.46690240  0.57348833  0.43587560  1
  Te  Te747  1  0.03309760  0.42651167  0.93587560  1
  Te  Te748  1  0.06412440  0.53309760  0.07348833  1
  Te  Te749  1  0.56412440  0.96690240  0.92651167  1
  Te  Te750  1  0.43587560  0.46690240  0.57348833  1
  Te  Te751  1  0.93587560  0.03309760  0.42651167  1
  Te  Te752  1  0.07348833  0.06412440  0.53309760  1
  Te  Te753  1  0.92651167  0.56412440  0.96690240  1
  Te  Te754  1  0.57348833  0.43587560  0.46690240  1
  Te  Te755  1  0.42651167  0.93587560  0.03309760  1
  Te  Te756  1  0.32348833  0.28309760  0.68587560  1
  Te  Te757  1  0.17651167  0.71690240  0.18587560  1
  Te  Te758  1  0.82348833  0.21690240  0.31412440  1
  Te  Te759  1  0.67651167  0.78309760  0.81412440  1
  Te  Te760  1  0.78309760  0.81412440  0.67651167  1
  Te  Te761  1  0.21690240  0.31412440  0.82348833  1
  Te  Te762  1  0.71690240  0.18587560  0.17651167  1
  Te  Te763  1  0.28309760  0.68587560  0.32348833  1
  Te  Te764  1  0.31412440  0.82348833  0.21690240  1
  Te  Te765  1  0.81412440  0.67651167  0.78309760  1
  Te  Te766  1  0.68587560  0.32348833  0.28309760  1
  Te  Te767  1  0.18587560  0.17651167  0.71690240  1
  Te  Te768  1  0.77912516  0.02413200  0.40944710  1
  Te  Te769  1  0.72087484  0.97586800  0.90944710  1
  Te  Te770  1  0.22087484  0.52413200  0.09055290  1
  Te  Te771  1  0.27912516  0.47586800  0.59055290  1
  Te  Te772  1  0.40944710  0.77912516  0.02413200  1
  Te  Te773  1  0.90944710  0.72087484  0.97586800  1
  Te  Te774  1  0.09055290  0.22087484  0.52413200  1
  Te  Te775  1  0.59055290  0.27912516  0.47586800  1
  Te  Te776  1  0.02413200  0.40944710  0.77912516  1
  Te  Te777  1  0.97586800  0.90944710  0.72087484  1
  Te  Te778  1  0.52413200  0.09055290  0.22087484  1
  Te  Te779  1  0.47586800  0.59055290  0.27912516  1
  Te  Te780  1  0.77413200  0.02912516  0.84055290  1
  Te  Te781  1  0.72586800  0.97087484  0.34055290  1
  Te  Te782  1  0.27413200  0.47087484  0.15944710  1
  Te  Te783  1  0.22586800  0.52912516  0.65944710  1
  Te  Te784  1  0.52912516  0.65944710  0.22586800  1
  Te  Te785  1  0.47087484  0.15944710  0.27413200  1
  Te  Te786  1  0.97087484  0.34055290  0.72586800  1
  Te  Te787  1  0.02912516  0.84055290  0.77413200  1
  Te  Te788  1  0.15944710  0.27413200  0.47087484  1
  Te  Te789  1  0.65944710  0.22586800  0.52912516  1
  Te  Te790  1  0.84055290  0.77413200  0.02912516  1
  Te  Te791  1  0.34055290  0.72586800  0.97087484  1
  Te  Te792  1  0.22087484  0.97586800  0.59055290  1
  Te  Te793  1  0.27912516  0.02413200  0.09055290  1
  Te  Te794  1  0.77912516  0.47586800  0.90944710  1
  Te  Te795  1  0.72087484  0.52413200  0.40944710  1
  Te  Te796  1  0.59055290  0.22087484  0.97586800  1
  Te  Te797  1  0.09055290  0.27912516  0.02413200  1
  Te  Te798  1  0.90944710  0.77912516  0.47586800  1
  Te  Te799  1  0.40944710  0.72087484  0.52413200  1
  Te  Te800  1  0.97586800  0.59055290  0.22087484  1
  Te  Te801  1  0.02413200  0.09055290  0.27912516  1
  Te  Te802  1  0.47586800  0.90944710  0.77912516  1
  Te  Te803  1  0.52413200  0.40944710  0.72087484  1
  Te  Te804  1  0.22586800  0.97087484  0.15944710  1
  Te  Te805  1  0.27413200  0.02912516  0.65944710  1
  Te  Te806  1  0.72586800  0.52912516  0.84055290  1
  Te  Te807  1  0.77413200  0.47087484  0.34055290  1
  Te  Te808  1  0.47087484  0.34055290  0.77413200  1
  Te  Te809  1  0.52912516  0.84055290  0.72586800  1
  Te  Te810  1  0.02912516  0.65944710  0.27413200  1
  Te  Te811  1  0.97087484  0.15944710  0.22586800  1
  Te  Te812  1  0.84055290  0.72586800  0.52912516  1
  Te  Te813  1  0.34055290  0.77413200  0.47087484  1
  Te  Te814  1  0.15944710  0.22586800  0.97087484  1
  Te  Te815  1  0.65944710  0.27413200  0.02912516  1
  Te  Te816  1  0.27912516  0.52413200  0.90944710  1
  Te  Te817  1  0.22087484  0.47586800  0.40944710  1
  Te  Te818  1  0.72087484  0.02413200  0.59055290  1
  Te  Te819  1  0.77912516  0.97586800  0.09055290  1
  Te  Te820  1  0.90944710  0.27912516  0.52413200  1
  Te  Te821  1  0.40944710  0.22087484  0.47586800  1
  Te  Te822  1  0.59055290  0.72087484  0.02413200  1
  Te  Te823  1  0.09055290  0.77912516  0.97586800  1
  Te  Te824  1  0.52413200  0.90944710  0.27912516  1
  Te  Te825  1  0.47586800  0.40944710  0.22087484  1
  Te  Te826  1  0.02413200  0.59055290  0.72087484  1
  Te  Te827  1  0.97586800  0.09055290  0.77912516  1
  Te  Te828  1  0.27413200  0.52912516  0.34055290  1
  Te  Te829  1  0.22586800  0.47087484  0.84055290  1
  Te  Te830  1  0.77413200  0.97087484  0.65944710  1
  Te  Te831  1  0.72586800  0.02912516  0.15944710  1
  Te  Te832  1  0.02912516  0.15944710  0.72586800  1
  Te  Te833  1  0.97087484  0.65944710  0.77413200  1
  Te  Te834  1  0.47087484  0.84055290  0.22586800  1
  Te  Te835  1  0.52912516  0.34055290  0.27413200  1
  Te  Te836  1  0.65944710  0.77413200  0.97087484  1
  Te  Te837  1  0.15944710  0.72586800  0.02912516  1
  Te  Te838  1  0.34055290  0.27413200  0.52912516  1
  Te  Te839  1  0.84055290  0.22586800  0.47087484  1
  Te  Te840  1  0.72087484  0.47586800  0.09055290  1
  Te  Te841  1  0.77912516  0.52413200  0.59055290  1
  Te  Te842  1  0.27912516  0.97586800  0.40944710  1
  Te  Te843  1  0.22087484  0.02413200  0.90944710  1
  Te  Te844  1  0.09055290  0.72087484  0.47586800  1
  Te  Te845  1  0.59055290  0.77912516  0.52413200  1
  Te  Te846  1  0.40944710  0.27912516  0.97586800  1
  Te  Te847  1  0.90944710  0.22087484  0.02413200  1
  Te  Te848  1  0.47586800  0.09055290  0.72087484  1
  Te  Te849  1  0.52413200  0.59055290  0.77912516  1
  Te  Te850  1  0.97586800  0.40944710  0.27912516  1
  Te  Te851  1  0.02413200  0.90944710  0.22087484  1
  Te  Te852  1  0.72586800  0.47087484  0.65944710  1
  Te  Te853  1  0.77413200  0.52912516  0.15944710  1
  Te  Te854  1  0.22586800  0.02912516  0.34055290  1
  Te  Te855  1  0.27413200  0.97087484  0.84055290  1
  Te  Te856  1  0.97087484  0.84055290  0.27413200  1
  Te  Te857  1  0.02912516  0.34055290  0.22586800  1
  Te  Te858  1  0.52912516  0.15944710  0.77413200  1
  Te  Te859  1  0.47087484  0.65944710  0.72586800  1
  Te  Te860  1  0.34055290  0.22586800  0.02912516  1
  Te  Te861  1  0.84055290  0.27413200  0.97087484  1
  Te  Te862  1  0.65944710  0.72586800  0.47087484  1
  Te  Te863  1  0.15944710  0.77413200  0.52912516  1
  Te  Te864  1  0.12500000  0.46287898  0.78712102  1
  Te  Te865  1  0.37500000  0.53712102  0.28712102  1
  Te  Te866  1  0.87500000  0.96287898  0.71287898  1
  Te  Te867  1  0.62500000  0.03712102  0.21287898  1
  Te  Te868  1  0.78712102  0.12500000  0.46287898  1
  Te  Te869  1  0.28712102  0.37500000  0.53712102  1
  Te  Te870  1  0.71287898  0.87500000  0.96287898  1
  Te  Te871  1  0.21287898  0.62500000  0.03712102  1
  Te  Te872  1  0.46287898  0.78712102  0.12500000  1
  Te  Te873  1  0.53712102  0.28712102  0.37500000  1
  Te  Te874  1  0.96287898  0.71287898  0.87500000  1
  Te  Te875  1  0.03712102  0.21287898  0.62500000  1
  Te  Te876  1  0.87500000  0.53712102  0.21287898  1
  Te  Te877  1  0.62500000  0.46287898  0.71287898  1
  Te  Te878  1  0.12500000  0.03712102  0.28712102  1
  Te  Te879  1  0.37500000  0.96287898  0.78712102  1
  Te  Te880  1  0.21287898  0.87500000  0.53712102  1
  Te  Te881  1  0.71287898  0.62500000  0.46287898  1
  Te  Te882  1  0.28712102  0.12500000  0.03712102  1
  Te  Te883  1  0.78712102  0.37500000  0.96287898  1
  Te  Te884  1  0.53712102  0.21287898  0.87500000  1
  Te  Te885  1  0.46287898  0.71287898  0.62500000  1
  Te  Te886  1  0.03712102  0.28712102  0.12500000  1
  Te  Te887  1  0.96287898  0.78712102  0.37500000  1
  Te  Te888  1  0.62500000  0.96287898  0.28712102  1
  Te  Te889  1  0.87500000  0.03712102  0.78712102  1
  Te  Te890  1  0.37500000  0.46287898  0.21287898  1
  Te  Te891  1  0.12500000  0.53712102  0.71287898  1
  Te  Te892  1  0.28712102  0.62500000  0.96287898  1
  Te  Te893  1  0.78712102  0.87500000  0.03712102  1
  Te  Te894  1  0.21287898  0.37500000  0.46287898  1
  Te  Te895  1  0.71287898  0.12500000  0.53712102  1
  Te  Te896  1  0.96287898  0.28712102  0.62500000  1
  Te  Te897  1  0.03712102  0.78712102  0.87500000  1
  Te  Te898  1  0.46287898  0.21287898  0.37500000  1
  Te  Te899  1  0.53712102  0.71287898  0.12500000  1
  Te  Te900  1  0.37500000  0.03712102  0.71287898  1
  Te  Te901  1  0.12500000  0.96287898  0.21287898  1
  Te  Te902  1  0.62500000  0.53712102  0.78712102  1
  Te  Te903  1  0.87500000  0.46287898  0.28712102  1
  Te  Te904  1  0.71287898  0.37500000  0.03712102  1
  Te  Te905  1  0.21287898  0.12500000  0.96287898  1
  Te  Te906  1  0.78712102  0.62500000  0.53712102  1
  Te  Te907  1  0.28712102  0.87500000  0.46287898  1
  Te  Te908  1  0.03712102  0.71287898  0.37500000  1
  Te  Te909  1  0.96287898  0.21287898  0.12500000  1
  Te  Te910  1  0.53712102  0.78712102  0.62500000  1
  Te  Te911  1  0.46287898  0.28712102  0.87500000  1
  Te  Te912  1  0.12500000  0.76973469  0.48026531  1
  Te  Te913  1  0.37500000  0.23026531  0.98026531  1
  Te  Te914  1  0.87500000  0.26973469  0.01973469  1
  Te  Te915  1  0.62500000  0.73026531  0.51973469  1
  Te  Te916  1  0.48026531  0.12500000  0.76973469  1
  Te  Te917  1  0.98026531  0.37500000  0.23026531  1
  Te  Te918  1  0.01973469  0.87500000  0.26973469  1
  Te  Te919  1  0.51973469  0.62500000  0.73026531  1
  Te  Te920  1  0.76973469  0.48026531  0.12500000  1
  Te  Te921  1  0.23026531  0.98026531  0.37500000  1
  Te  Te922  1  0.26973469  0.01973469  0.87500000  1
  Te  Te923  1  0.73026531  0.51973469  0.62500000  1
  Te  Te924  1  0.87500000  0.23026531  0.51973469  1
  Te  Te925  1  0.62500000  0.76973469  0.01973469  1
  Te  Te926  1  0.12500000  0.73026531  0.98026531  1
  Te  Te927  1  0.37500000  0.26973469  0.48026531  1
  Te  Te928  1  0.51973469  0.87500000  0.23026531  1
  Te  Te929  1  0.01973469  0.62500000  0.76973469  1
  Te  Te930  1  0.98026531  0.12500000  0.73026531  1
  Te  Te931  1  0.48026531  0.37500000  0.26973469  1
  Te  Te932  1  0.23026531  0.51973469  0.87500000  1
  Te  Te933  1  0.76973469  0.01973469  0.62500000  1
  Te  Te934  1  0.73026531  0.98026531  0.12500000  1
  Te  Te935  1  0.26973469  0.48026531  0.37500000  1
  Te  Te936  1  0.62500000  0.26973469  0.98026531  1
  Te  Te937  1  0.87500000  0.73026531  0.48026531  1
  Te  Te938  1  0.37500000  0.76973469  0.51973469  1
  Te  Te939  1  0.12500000  0.23026531  0.01973469  1
  Te  Te940  1  0.98026531  0.62500000  0.26973469  1
  Te  Te941  1  0.48026531  0.87500000  0.73026531  1
  Te  Te942  1  0.51973469  0.37500000  0.76973469  1
  Te  Te943  1  0.01973469  0.12500000  0.23026531  1
  Te  Te944  1  0.26973469  0.98026531  0.62500000  1
  Te  Te945  1  0.73026531  0.48026531  0.87500000  1
  Te  Te946  1  0.76973469  0.51973469  0.37500000  1
  Te  Te947  1  0.23026531  0.01973469  0.12500000  1
  Te  Te948  1  0.37500000  0.73026531  0.01973469  1
  Te  Te949  1  0.12500000  0.26973469  0.51973469  1
  Te  Te950  1  0.62500000  0.23026531  0.48026531  1
  Te  Te951  1  0.87500000  0.76973469  0.98026531  1
  Te  Te952  1  0.01973469  0.37500000  0.73026531  1
  Te  Te953  1  0.51973469  0.12500000  0.26973469  1
  Te  Te954  1  0.48026531  0.62500000  0.23026531  1
  Te  Te955  1  0.98026531  0.87500000  0.76973469  1
  Te  Te956  1  0.73026531  0.01973469  0.37500000  1
  Te  Te957  1  0.26973469  0.51973469  0.12500000  1
  Te  Te958  1  0.23026531  0.48026531  0.62500000  1
  Te  Te959  1  0.76973469  0.98026531  0.87500000  1
