# generated using pymatgen
data_NaLi3CaF6
_symmetry_space_group_name_H-M   'P 1'
_cell_length_a   25.63544213
_cell_length_b   25.63544213
_cell_length_c   25.63544213
_cell_angle_alpha   90.00000000
_cell_angle_beta   90.00000000
_cell_angle_gamma   90.00000000
_symmetry_Int_Tables_number   1
_chemical_formula_structural   NaLi3CaF6
_chemical_formula_sum   'Na96 Li288 Ca96 F576'
_cell_volume   16846.99457100
_cell_formula_units_Z   96
loop_
 _symmetry_equiv_pos_site_id
 _symmetry_equiv_pos_as_xyz
  1  'x, y, z'
loop_
 _atom_site_type_symbol
 _atom_site_label
 _atom_site_symmetry_multiplicity
 _atom_site_fract_x
 _atom_site_fract_y
 _atom_site_fract_z
 _atom_site_occupancy
  Ca  Ca0  1  0.00000000  0.00000000  0.00000000  1
  Ca  Ca1  1  0.75000000  0.25000000  0.50000000  1
  Ca  Ca2  1  0.25000000  0.50000000  0.75000000  1
  Ca  Ca3  1  0.50000000  0.75000000  0.25000000  1
  Ca  Ca4  1  0.00000000  0.50000000  0.50000000  1
  Ca  Ca5  1  0.75000000  0.75000000  0.00000000  1
  Ca  Ca6  1  0.25000000  0.00000000  0.25000000  1
  Ca  Ca7  1  0.50000000  0.25000000  0.75000000  1
  Ca  Ca8  1  0.50000000  0.00000000  0.50000000  1
  Ca  Ca9  1  0.25000000  0.25000000  0.00000000  1
  Ca  Ca10  1  0.75000000  0.50000000  0.25000000  1
  Ca  Ca11  1  0.00000000  0.75000000  0.75000000  1
  Ca  Ca12  1  0.50000000  0.50000000  0.00000000  1
  Ca  Ca13  1  0.25000000  0.75000000  0.50000000  1
  Ca  Ca14  1  0.75000000  0.00000000  0.75000000  1
  Ca  Ca15  1  0.00000000  0.25000000  0.25000000  1
  Ca  Ca16  1  0.86847719  0.12500000  0.12500000  1
  Ca  Ca17  1  0.88152281  0.12500000  0.62500000  1
  Ca  Ca18  1  0.12500000  0.86847719  0.12500000  1
  Ca  Ca19  1  0.62500000  0.88152281  0.12500000  1
  Ca  Ca20  1  0.12500000  0.12500000  0.86847719  1
  Ca  Ca21  1  0.12500000  0.62500000  0.88152281  1
  Ca  Ca22  1  0.87500000  0.11847719  0.37500000  1
  Ca  Ca23  1  0.87500000  0.13152281  0.87500000  1
  Ca  Ca24  1  0.61847719  0.37500000  0.37500000  1
  Ca  Ca25  1  0.63152281  0.87500000  0.37500000  1
  Ca  Ca26  1  0.87500000  0.37500000  0.63152281  1
  Ca  Ca27  1  0.37500000  0.37500000  0.61847719  1
  Ca  Ca28  1  0.86847719  0.62500000  0.62500000  1
  Ca  Ca29  1  0.88152281  0.62500000  0.12500000  1
  Ca  Ca30  1  0.12500000  0.36847719  0.62500000  1
  Ca  Ca31  1  0.62500000  0.38152281  0.62500000  1
  Ca  Ca32  1  0.12500000  0.62500000  0.36847719  1
  Ca  Ca33  1  0.12500000  0.12500000  0.38152281  1
  Ca  Ca34  1  0.87500000  0.61847719  0.87500000  1
  Ca  Ca35  1  0.87500000  0.63152281  0.37500000  1
  Ca  Ca36  1  0.61847719  0.87500000  0.87500000  1
  Ca  Ca37  1  0.63152281  0.37500000  0.87500000  1
  Ca  Ca38  1  0.87500000  0.87500000  0.13152281  1
  Ca  Ca39  1  0.37500000  0.87500000  0.11847719  1
  Ca  Ca40  1  0.36847719  0.12500000  0.62500000  1
  Ca  Ca41  1  0.38152281  0.12500000  0.12500000  1
  Ca  Ca42  1  0.62500000  0.86847719  0.62500000  1
  Ca  Ca43  1  0.12500000  0.88152281  0.62500000  1
  Ca  Ca44  1  0.62500000  0.12500000  0.36847719  1
  Ca  Ca45  1  0.62500000  0.62500000  0.38152281  1
  Ca  Ca46  1  0.37500000  0.11847719  0.87500000  1
  Ca  Ca47  1  0.37500000  0.13152281  0.37500000  1
  Ca  Ca48  1  0.11847719  0.37500000  0.87500000  1
  Ca  Ca49  1  0.13152281  0.87500000  0.87500000  1
  Ca  Ca50  1  0.37500000  0.37500000  0.13152281  1
  Ca  Ca51  1  0.87500000  0.37500000  0.11847719  1
  Ca  Ca52  1  0.36847719  0.62500000  0.12500000  1
  Ca  Ca53  1  0.38152281  0.62500000  0.62500000  1
  Ca  Ca54  1  0.62500000  0.36847719  0.12500000  1
  Ca  Ca55  1  0.12500000  0.38152281  0.12500000  1
  Ca  Ca56  1  0.62500000  0.62500000  0.86847719  1
  Ca  Ca57  1  0.62500000  0.12500000  0.88152281  1
  Ca  Ca58  1  0.37500000  0.61847719  0.37500000  1
  Ca  Ca59  1  0.37500000  0.63152281  0.87500000  1
  Ca  Ca60  1  0.11847719  0.87500000  0.37500000  1
  Ca  Ca61  1  0.13152281  0.37500000  0.37500000  1
  Ca  Ca62  1  0.37500000  0.87500000  0.63152281  1
  Ca  Ca63  1  0.87500000  0.87500000  0.61847719  1
  Ca  Ca64  1  0.47714078  0.47714078  0.47714078  1
  Ca  Ca65  1  0.27285922  0.77285922  0.97714078  1
  Ca  Ca66  1  0.77285922  0.97714078  0.27285922  1
  Ca  Ca67  1  0.97714078  0.27285922  0.77285922  1
  Ca  Ca68  1  0.22714078  0.72714078  0.02285922  1
  Ca  Ca69  1  0.52285922  0.52285922  0.52285922  1
  Ca  Ca70  1  0.72714078  0.02285922  0.22714078  1
  Ca  Ca71  1  0.02285922  0.22714078  0.72714078  1
  Ca  Ca72  1  0.47714078  0.97714078  0.97714078  1
  Ca  Ca73  1  0.27285922  0.27285922  0.47714078  1
  Ca  Ca74  1  0.77285922  0.47714078  0.77285922  1
  Ca  Ca75  1  0.97714078  0.77285922  0.27285922  1
  Ca  Ca76  1  0.22714078  0.22714078  0.52285922  1
  Ca  Ca77  1  0.52285922  0.02285922  0.02285922  1
  Ca  Ca78  1  0.72714078  0.52285922  0.72714078  1
  Ca  Ca79  1  0.02285922  0.72714078  0.22714078  1
  Ca  Ca80  1  0.97714078  0.47714078  0.97714078  1
  Ca  Ca81  1  0.77285922  0.77285922  0.47714078  1
  Ca  Ca82  1  0.27285922  0.97714078  0.77285922  1
  Ca  Ca83  1  0.47714078  0.27285922  0.27285922  1
  Ca  Ca84  1  0.72714078  0.72714078  0.52285922  1
  Ca  Ca85  1  0.02285922  0.52285922  0.02285922  1
  Ca  Ca86  1  0.22714078  0.02285922  0.72714078  1
  Ca  Ca87  1  0.52285922  0.22714078  0.22714078  1
  Ca  Ca88  1  0.97714078  0.97714078  0.47714078  1
  Ca  Ca89  1  0.77285922  0.27285922  0.97714078  1
  Ca  Ca90  1  0.27285922  0.47714078  0.27285922  1
  Ca  Ca91  1  0.47714078  0.77285922  0.77285922  1
  Ca  Ca92  1  0.72714078  0.22714078  0.02285922  1
  Ca  Ca93  1  0.02285922  0.02285922  0.52285922  1
  Ca  Ca94  1  0.22714078  0.52285922  0.22714078  1
  Ca  Ca95  1  0.52285922  0.72714078  0.72714078  1
  F  F96  1  0.82227318  0.10882950  0.29436075  1
  F  F97  1  -0.07227318  0.14117050  0.79436075  1
  F  F98  1  -0.57227318  0.60882950  0.45563925  1
  F  F99  1  1.32227318  0.64117050  -0.04436075  1
  F  F100  1  0.29436075  0.82227318  0.10882950  1
  F  F101  1  0.79436075  -0.07227318  0.14117050  1
  F  F102  1  0.45563925  -0.57227318  0.60882950  1
  F  F103  1  -0.04436075  1.32227318  0.64117050  1
  F  F104  1  0.10882950  0.29436075  0.82227318  1
  F  F105  1  0.14117050  0.79436075  -0.07227318  1
  F  F106  1  0.60882950  0.45563925  -0.57227318  1
  F  F107  1  0.64117050  -0.04436075  1.32227318  1
  F  F108  1  0.85882950  1.07227318  0.20563925  1
  F  F109  1  -0.10882950  -0.82227318  -0.29436075  1
  F  F110  1  0.35882950  -0.32227318  1.04436075  1
  F  F111  1  0.39117050  1.57227318  0.54436075  1
  F  F112  1  1.57227318  0.54436075  0.39117050  1
  F  F113  1  -0.32227318  1.04436075  0.35882950  1
  F  F114  1  -0.82227318  -0.29436075  -0.10882950  1
  F  F115  1  1.07227318  0.20563925  0.85882950  1
  F  F116  1  1.04436075  0.35882950  -0.32227318  1
  F  F117  1  0.54436075  0.39117050  1.57227318  1
  F  F118  1  0.20563925  0.85882950  1.07227318  1
  F  F119  1  -0.29436075  -0.10882950  -0.82227318  1
  F  F120  1  -0.82227318  -0.10882950  -0.29436075  1
  F  F121  1  1.07227318  0.85882950  0.20563925  1
  F  F122  1  1.57227318  0.39117050  0.54436075  1
  F  F123  1  -0.32227318  0.35882950  1.04436075  1
  F  F124  1  -0.29436075  -0.82227318  -0.10882950  1
  F  F125  1  0.20563925  1.07227318  0.85882950  1
  F  F126  1  0.54436075  1.57227318  0.39117050  1
  F  F127  1  1.04436075  -0.32227318  0.35882950  1
  F  F128  1  -0.10882950  -0.29436075  -0.82227318  1
  F  F129  1  0.85882950  0.20563925  1.07227318  1
  F  F130  1  0.39117050  0.54436075  1.57227318  1
  F  F131  1  0.35882950  1.04436075  -0.32227318  1
  F  F132  1  0.14117050  -0.07227318  0.79436075  1
  F  F133  1  0.10882950  0.82227318  0.29436075  1
  F  F134  1  0.64117050  1.32227318  -0.04436075  1
  F  F135  1  0.60882950  -0.57227318  0.45563925  1
  F  F136  1  -0.57227318  0.45563925  0.60882950  1
  F  F137  1  1.32227318  -0.04436075  0.64117050  1
  F  F138  1  0.82227318  0.29436075  0.10882950  1
  F  F139  1  -0.07227318  0.79436075  0.14117050  1
  F  F140  1  -0.04436075  0.64117050  1.32227318  1
  F  F141  1  0.45563925  0.60882950  -0.57227318  1
  F  F142  1  0.79436075  0.14117050  -0.07227318  1
  F  F143  1  0.29436075  0.10882950  0.82227318  1
  F  F144  1  0.82227318  0.60882950  0.79436075  1
  F  F145  1  -0.07227318  0.64117050  1.29436075  1
  F  F146  1  -0.57227318  1.10882950  0.95563925  1
  F  F147  1  1.32227318  1.14117050  0.45563925  1
  F  F148  1  0.29436075  1.32227318  0.60882950  1
  F  F149  1  0.79436075  0.42772682  0.64117050  1
  F  F150  1  0.45563925  -0.07227318  1.10882950  1
  F  F151  1  -0.04436075  1.82227318  1.14117050  1
  F  F152  1  0.10882950  0.79436075  1.32227318  1
  F  F153  1  0.14117050  1.29436075  0.42772682  1
  F  F154  1  0.60882950  0.95563925  -0.07227318  1
  F  F155  1  0.64117050  0.45563925  1.82227318  1
  F  F156  1  0.85882950  1.57227318  0.70563925  1
  F  F157  1  -0.10882950  -0.32227318  0.20563925  1
  F  F158  1  0.35882950  0.17772682  1.54436075  1
  F  F159  1  0.39117050  2.07227318  1.04436075  1
  F  F160  1  1.57227318  1.04436075  0.89117050  1
  F  F161  1  -0.32227318  1.54436075  0.85882950  1
  F  F162  1  -0.82227318  0.20563925  0.39117050  1
  F  F163  1  1.07227318  0.70563925  1.35882950  1
  F  F164  1  1.04436075  0.85882950  0.17772682  1
  F  F165  1  0.54436075  0.89117050  2.07227318  1
  F  F166  1  0.20563925  1.35882950  1.57227318  1
  F  F167  1  -0.29436075  0.39117050  -0.32227318  1
  F  F168  1  -0.82227318  0.39117050  0.20563925  1
  F  F169  1  1.07227318  1.35882950  0.70563925  1
  F  F170  1  1.57227318  0.89117050  1.04436075  1
  F  F171  1  -0.32227318  0.85882950  1.54436075  1
  F  F172  1  -0.29436075  -0.32227318  0.39117050  1
  F  F173  1  0.20563925  1.57227318  1.35882950  1
  F  F174  1  0.54436075  2.07227318  0.89117050  1
  F  F175  1  1.04436075  0.17772682  0.85882950  1
  F  F176  1  -0.10882950  0.20563925  -0.32227318  1
  F  F177  1  0.85882950  0.70563925  1.57227318  1
  F  F178  1  0.39117050  1.04436075  2.07227318  1
  F  F179  1  0.35882950  1.54436075  0.17772682  1
  F  F180  1  0.14117050  0.42772682  1.29436075  1
  F  F181  1  0.10882950  1.32227318  0.79436075  1
  F  F182  1  0.64117050  1.82227318  0.45563925  1
  F  F183  1  0.60882950  -0.07227318  0.95563925  1
  F  F184  1  -0.57227318  0.95563925  1.10882950  1
  F  F185  1  1.32227318  0.45563925  1.14117050  1
  F  F186  1  0.82227318  0.79436075  0.60882950  1
  F  F187  1  -0.07227318  1.29436075  0.64117050  1
  F  F188  1  -0.04436075  1.14117050  1.82227318  1
  F  F189  1  0.45563925  1.10882950  -0.07227318  1
  F  F190  1  0.79436075  0.64117050  0.42772682  1
  F  F191  1  0.29436075  0.60882950  1.32227318  1
  F  F192  1  1.32227318  0.10882950  0.79436075  1
  F  F193  1  0.42772682  0.14117050  1.29436075  1
  F  F194  1  -0.07227318  0.60882950  0.95563925  1
  F  F195  1  1.82227318  0.64117050  0.45563925  1
  F  F196  1  0.79436075  0.82227318  0.60882950  1
  F  F197  1  1.29436075  -0.07227318  0.64117050  1
  F  F198  1  0.95563925  -0.57227318  1.10882950  1
  F  F199  1  0.45563925  1.32227318  1.14117050  1
  F  F200  1  0.60882950  0.29436075  1.32227318  1
  F  F201  1  0.64117050  0.79436075  0.42772682  1
  F  F202  1  1.10882950  0.45563925  -0.07227318  1
  F  F203  1  1.14117050  -0.04436075  1.82227318  1
  F  F204  1  1.35882950  1.07227318  0.70563925  1
  F  F205  1  0.39117050  -0.82227318  0.20563925  1
  F  F206  1  0.85882950  -0.32227318  1.54436075  1
  F  F207  1  0.89117050  1.57227318  1.04436075  1
  F  F208  1  2.07227318  0.54436075  0.89117050  1
  F  F209  1  0.17772682  1.04436075  0.85882950  1
  F  F210  1  -0.32227318  -0.29436075  0.39117050  1
  F  F211  1  1.57227318  0.20563925  1.35882950  1
  F  F212  1  1.54436075  0.35882950  0.17772682  1
  F  F213  1  1.04436075  0.39117050  2.07227318  1
  F  F214  1  0.70563925  0.85882950  1.57227318  1
  F  F215  1  0.20563925  -0.10882950  -0.32227318  1
  F  F216  1  -0.32227318  -0.10882950  0.20563925  1
  F  F217  1  1.57227318  0.85882950  0.70563925  1
  F  F218  1  2.07227318  0.39117050  1.04436075  1
  F  F219  1  0.17772682  0.35882950  1.54436075  1
  F  F220  1  0.20563925  -0.82227318  0.39117050  1
  F  F221  1  0.70563925  1.07227318  1.35882950  1
  F  F222  1  1.04436075  1.57227318  0.89117050  1
  F  F223  1  1.54436075  -0.32227318  0.85882950  1
  F  F224  1  0.39117050  -0.29436075  -0.32227318  1
  F  F225  1  1.35882950  0.20563925  1.57227318  1
  F  F226  1  0.89117050  0.54436075  2.07227318  1
  F  F227  1  0.85882950  1.04436075  0.17772682  1
  F  F228  1  0.64117050  -0.07227318  1.29436075  1
  F  F229  1  0.60882950  0.82227318  0.79436075  1
  F  F230  1  1.14117050  1.32227318  0.45563925  1
  F  F231  1  1.10882950  -0.57227318  0.95563925  1
  F  F232  1  -0.07227318  0.45563925  1.10882950  1
  F  F233  1  1.82227318  -0.04436075  1.14117050  1
  F  F234  1  1.32227318  0.29436075  0.60882950  1
  F  F235  1  0.42772682  0.79436075  0.64117050  1
  F  F236  1  0.45563925  0.64117050  1.82227318  1
  F  F237  1  0.95563925  0.60882950  -0.07227318  1
  F  F238  1  1.29436075  0.14117050  0.42772682  1
  F  F239  1  0.79436075  0.10882950  1.32227318  1
  F  F240  1  1.32227318  0.60882950  0.29436075  1
  F  F241  1  0.42772682  0.64117050  0.79436075  1
  F  F242  1  -0.07227318  1.10882950  0.45563925  1
  F  F243  1  1.82227318  1.14117050  -0.04436075  1
  F  F244  1  0.79436075  1.32227318  0.10882950  1
  F  F245  1  1.29436075  0.42772682  0.14117050  1
  F  F246  1  0.95563925  -0.07227318  0.60882950  1
  F  F247  1  0.45563925  1.82227318  0.64117050  1
  F  F248  1  0.60882950  0.79436075  0.82227318  1
  F  F249  1  0.64117050  1.29436075  -0.07227318  1
  F  F250  1  1.10882950  0.95563925  -0.57227318  1
  F  F251  1  1.14117050  0.45563925  1.32227318  1
  F  F252  1  1.35882950  1.57227318  0.20563925  1
  F  F253  1  0.39117050  -0.32227318  -0.29436075  1
  F  F254  1  0.85882950  0.17772682  1.04436075  1
  F  F255  1  0.89117050  2.07227318  0.54436075  1
  F  F256  1  2.07227318  1.04436075  0.39117050  1
  F  F257  1  0.17772682  1.54436075  0.35882950  1
  F  F258  1  -0.32227318  0.20563925  -0.10882950  1
  F  F259  1  1.57227318  0.70563925  0.85882950  1
  F  F260  1  1.54436075  0.85882950  -0.32227318  1
  F  F261  1  1.04436075  0.89117050  1.57227318  1
  F  F262  1  0.70563925  1.35882950  1.07227318  1
  F  F263  1  0.20563925  0.39117050  -0.82227318  1
  F  F264  1  -0.32227318  0.39117050  -0.29436075  1
  F  F265  1  1.57227318  1.35882950  0.20563925  1
  F  F266  1  2.07227318  0.89117050  0.54436075  1
  F  F267  1  0.17772682  0.85882950  1.04436075  1
  F  F268  1  0.20563925  -0.32227318  -0.10882950  1
  F  F269  1  0.70563925  1.57227318  0.85882950  1
  F  F270  1  1.04436075  2.07227318  0.39117050  1
  F  F271  1  1.54436075  0.17772682  0.35882950  1
  F  F272  1  0.39117050  0.20563925  -0.82227318  1
  F  F273  1  1.35882950  0.70563925  1.07227318  1
  F  F274  1  0.89117050  1.04436075  1.57227318  1
  F  F275  1  0.85882950  1.54436075  -0.32227318  1
  F  F276  1  0.64117050  0.42772682  0.79436075  1
  F  F277  1  0.60882950  1.32227318  0.29436075  1
  F  F278  1  1.14117050  1.82227318  -0.04436075  1
  F  F279  1  1.10882950  -0.07227318  0.45563925  1
  F  F280  1  -0.07227318  0.95563925  0.60882950  1
  F  F281  1  1.82227318  0.45563925  0.64117050  1
  F  F282  1  1.32227318  0.79436075  0.10882950  1
  F  F283  1  0.42772682  1.29436075  0.14117050  1
  F  F284  1  0.45563925  1.14117050  1.32227318  1
  F  F285  1  0.95563925  1.10882950  -0.57227318  1
  F  F286  1  1.29436075  0.64117050  -0.07227318  1
  F  F287  1  0.79436075  0.60882950  0.82227318  1
  F  F288  1  0.75063407  0.28792234  0.36675236  1
  F  F289  1  0.99936593  0.96207766  0.86675236  1
  F  F290  1  0.49936593  0.78792234  0.38324764  1
  F  F291  1  0.25063407  0.46207766  0.88324764  1
  F  F292  1  0.36675236  0.75063407  0.28792234  1
  F  F293  1  0.86675236  0.99936593  0.96207766  1
  F  F294  1  0.38324764  0.49936593  0.78792234  1
  F  F295  1  0.88324764  0.25063407  0.46207766  1
  F  F296  1  0.28792234  0.36675236  0.75063407  1
  F  F297  1  0.96207766  0.86675236  0.99936593  1
  F  F298  1  0.78792234  0.38324764  0.49936593  1
  F  F299  1  0.46207766  0.88324764  0.25063407  1
  F  F300  1  0.03792234  0.00063407  0.13324764  1
  F  F301  1  0.71207766  0.24936593  0.63324764  1
  F  F302  1  0.53792234  0.74936593  0.11675236  1
  F  F303  1  0.21207766  0.50063407  0.61675236  1
  F  F304  1  0.50063407  0.61675236  0.21207766  1
  F  F305  1  0.74936593  0.11675236  0.53792234  1
  F  F306  1  0.24936593  0.63324764  0.71207766  1
  F  F307  1  0.00063407  0.13324764  0.03792234  1
  F  F308  1  0.11675236  0.53792234  0.74936593  1
  F  F309  1  0.61675236  0.21207766  0.50063407  1
  F  F310  1  0.13324764  0.03792234  0.00063407  1
  F  F311  1  0.63324764  0.71207766  0.24936593  1
  F  F312  1  0.24936593  0.71207766  0.63324764  1
  F  F313  1  0.00063407  0.03792234  0.13324764  1
  F  F314  1  0.50063407  0.21207766  0.61675236  1
  F  F315  1  0.74936593  0.53792234  0.11675236  1
  F  F316  1  0.63324764  0.24936593  0.71207766  1
  F  F317  1  0.13324764  0.00063407  0.03792234  1
  F  F318  1  0.61675236  0.50063407  0.21207766  1
  F  F319  1  0.11675236  0.74936593  0.53792234  1
  F  F320  1  0.71207766  0.63324764  0.24936593  1
  F  F321  1  0.03792234  0.13324764  0.00063407  1
  F  F322  1  0.21207766  0.61675236  0.50063407  1
  F  F323  1  0.53792234  0.11675236  0.74936593  1
  F  F324  1  0.96207766  0.99936593  0.86675236  1
  F  F325  1  0.28792234  0.75063407  0.36675236  1
  F  F326  1  0.46207766  0.25063407  0.88324764  1
  F  F327  1  0.78792234  0.49936593  0.38324764  1
  F  F328  1  0.49936593  0.38324764  0.78792234  1
  F  F329  1  0.25063407  0.88324764  0.46207766  1
  F  F330  1  0.75063407  0.36675236  0.28792234  1
  F  F331  1  0.99936593  0.86675236  0.96207766  1
  F  F332  1  0.88324764  0.46207766  0.25063407  1
  F  F333  1  0.38324764  0.78792234  0.49936593  1
  F  F334  1  0.86675236  0.96207766  0.99936593  1
  F  F335  1  0.36675236  0.28792234  0.75063407  1
  F  F336  1  0.75063407  0.78792234  0.86675236  1
  F  F337  1  0.99936593  0.46207766  0.36675236  1
  F  F338  1  0.49936593  0.28792234  0.88324764  1
  F  F339  1  0.25063407  0.96207766  0.38324764  1
  F  F340  1  0.36675236  0.25063407  0.78792234  1
  F  F341  1  0.86675236  0.49936593  0.46207766  1
  F  F342  1  0.38324764  0.99936593  0.28792234  1
  F  F343  1  0.88324764  0.75063407  0.96207766  1
  F  F344  1  0.28792234  0.86675236  0.25063407  1
  F  F345  1  0.96207766  0.36675236  0.49936593  1
  F  F346  1  0.78792234  0.88324764  0.99936593  1
  F  F347  1  0.46207766  0.38324764  0.75063407  1
  F  F348  1  0.03792234  0.50063407  0.63324764  1
  F  F349  1  0.71207766  0.74936593  0.13324764  1
  F  F350  1  0.53792234  0.24936593  0.61675236  1
  F  F351  1  0.21207766  0.00063407  0.11675236  1
  F  F352  1  0.50063407  0.11675236  0.71207766  1
  F  F353  1  0.74936593  0.61675236  0.03792234  1
  F  F354  1  0.24936593  0.13324764  0.21207766  1
  F  F355  1  0.00063407  0.63324764  0.53792234  1
  F  F356  1  0.11675236  0.03792234  0.24936593  1
  F  F357  1  0.61675236  0.71207766  0.00063407  1
  F  F358  1  0.13324764  0.53792234  0.50063407  1
  F  F359  1  0.63324764  0.21207766  0.74936593  1
  F  F360  1  0.24936593  0.21207766  0.13324764  1
  F  F361  1  0.00063407  0.53792234  0.63324764  1
  F  F362  1  0.50063407  0.71207766  0.11675236  1
  F  F363  1  0.74936593  0.03792234  0.61675236  1
  F  F364  1  0.63324764  0.74936593  0.21207766  1
  F  F365  1  0.13324764  0.50063407  0.53792234  1
  F  F366  1  0.61675236  0.00063407  0.71207766  1
  F  F367  1  0.11675236  0.24936593  0.03792234  1
  F  F368  1  0.71207766  0.13324764  0.74936593  1
  F  F369  1  0.03792234  0.63324764  0.50063407  1
  F  F370  1  0.21207766  0.11675236  0.00063407  1
  F  F371  1  0.53792234  0.61675236  0.24936593  1
  F  F372  1  0.96207766  0.49936593  0.36675236  1
  F  F373  1  0.28792234  0.25063407  0.86675236  1
  F  F374  1  0.46207766  0.75063407  0.38324764  1
  F  F375  1  0.78792234  0.99936593  0.88324764  1
  F  F376  1  0.49936593  0.88324764  0.28792234  1
  F  F377  1  0.25063407  0.38324764  0.96207766  1
  F  F378  1  0.75063407  0.86675236  0.78792234  1
  F  F379  1  0.99936593  0.36675236  0.46207766  1
  F  F380  1  0.88324764  0.96207766  0.75063407  1
  F  F381  1  0.38324764  0.28792234  0.99936593  1
  F  F382  1  0.86675236  0.46207766  0.49936593  1
  F  F383  1  0.36675236  0.78792234  0.25063407  1
  F  F384  1  0.25063407  0.28792234  0.86675236  1
  F  F385  1  0.49936593  0.96207766  0.36675236  1
  F  F386  1  0.99936593  0.78792234  0.88324764  1
  F  F387  1  0.75063407  0.46207766  0.38324764  1
  F  F388  1  0.86675236  0.75063407  0.78792234  1
  F  F389  1  0.36675236  0.99936593  0.46207766  1
  F  F390  1  0.88324764  0.49936593  0.28792234  1
  F  F391  1  0.38324764  0.25063407  0.96207766  1
  F  F392  1  0.78792234  0.36675236  0.25063407  1
  F  F393  1  0.46207766  0.86675236  0.49936593  1
  F  F394  1  0.28792234  0.38324764  0.99936593  1
  F  F395  1  0.96207766  0.88324764  0.75063407  1
  F  F396  1  0.53792234  0.00063407  0.63324764  1
  F  F397  1  0.21207766  0.24936593  0.13324764  1
  F  F398  1  0.03792234  0.74936593  0.61675236  1
  F  F399  1  0.71207766  0.50063407  0.11675236  1
  F  F400  1  0.00063407  0.61675236  0.71207766  1
  F  F401  1  0.24936593  0.11675236  0.03792234  1
  F  F402  1  0.74936593  0.63324764  0.21207766  1
  F  F403  1  0.50063407  0.13324764  0.53792234  1
  F  F404  1  0.61675236  0.53792234  0.24936593  1
  F  F405  1  0.11675236  0.21207766  0.00063407  1
  F  F406  1  0.63324764  0.03792234  0.50063407  1
  F  F407  1  0.13324764  0.71207766  0.74936593  1
  F  F408  1  0.74936593  0.71207766  0.13324764  1
  F  F409  1  0.50063407  0.03792234  0.63324764  1
  F  F410  1  0.00063407  0.21207766  0.11675236  1
  F  F411  1  0.24936593  0.53792234  0.61675236  1
  F  F412  1  0.13324764  0.24936593  0.21207766  1
  F  F413  1  0.63324764  0.00063407  0.53792234  1
  F  F414  1  0.11675236  0.50063407  0.71207766  1
  F  F415  1  0.61675236  0.74936593  0.03792234  1
  F  F416  1  0.21207766  0.63324764  0.74936593  1
  F  F417  1  0.53792234  0.13324764  0.50063407  1
  F  F418  1  0.71207766  0.61675236  0.00063407  1
  F  F419  1  0.03792234  0.11675236  0.24936593  1
  F  F420  1  0.46207766  0.99936593  0.36675236  1
  F  F421  1  0.78792234  0.75063407  0.86675236  1
  F  F422  1  0.96207766  0.25063407  0.38324764  1
  F  F423  1  0.28792234  0.49936593  0.88324764  1
  F  F424  1  0.99936593  0.38324764  0.28792234  1
  F  F425  1  0.75063407  0.88324764  0.96207766  1
  F  F426  1  0.25063407  0.36675236  0.78792234  1
  F  F427  1  0.49936593  0.86675236  0.46207766  1
  F  F428  1  0.38324764  0.46207766  0.75063407  1
  F  F429  1  0.88324764  0.78792234  0.99936593  1
  F  F430  1  0.36675236  0.96207766  0.49936593  1
  F  F431  1  0.86675236  0.28792234  0.25063407  1
  F  F432  1  0.25063407  0.78792234  0.36675236  1
  F  F433  1  0.49936593  0.46207766  0.86675236  1
  F  F434  1  0.99936593  0.28792234  0.38324764  1
  F  F435  1  0.75063407  0.96207766  0.88324764  1
  F  F436  1  0.86675236  0.25063407  0.28792234  1
  F  F437  1  0.36675236  0.49936593  0.96207766  1
  F  F438  1  0.88324764  0.99936593  0.78792234  1
  F  F439  1  0.38324764  0.75063407  0.46207766  1
  F  F440  1  0.78792234  0.86675236  0.75063407  1
  F  F441  1  0.46207766  0.36675236  0.99936593  1
  F  F442  1  0.28792234  0.88324764  0.49936593  1
  F  F443  1  0.96207766  0.38324764  0.25063407  1
  F  F444  1  0.53792234  0.50063407  0.13324764  1
  F  F445  1  0.21207766  0.74936593  0.63324764  1
  F  F446  1  0.03792234  0.24936593  0.11675236  1
  F  F447  1  0.71207766  0.00063407  0.61675236  1
  F  F448  1  0.00063407  0.11675236  0.21207766  1
  F  F449  1  0.24936593  0.61675236  0.53792234  1
  F  F450  1  0.74936593  0.13324764  0.71207766  1
  F  F451  1  0.50063407  0.63324764  0.03792234  1
  F  F452  1  0.61675236  0.03792234  0.74936593  1
  F  F453  1  0.11675236  0.71207766  0.50063407  1
  F  F454  1  0.63324764  0.53792234  0.00063407  1
  F  F455  1  0.13324764  0.21207766  0.24936593  1
  F  F456  1  0.74936593  0.21207766  0.63324764  1
  F  F457  1  0.50063407  0.53792234  0.13324764  1
  F  F458  1  0.00063407  0.71207766  0.61675236  1
  F  F459  1  0.24936593  0.03792234  0.11675236  1
  F  F460  1  0.13324764  0.74936593  0.71207766  1
  F  F461  1  0.63324764  0.50063407  0.03792234  1
  F  F462  1  0.11675236  0.00063407  0.21207766  1
  F  F463  1  0.61675236  0.24936593  0.53792234  1
  F  F464  1  0.21207766  0.13324764  0.24936593  1
  F  F465  1  0.53792234  0.63324764  0.00063407  1
  F  F466  1  0.71207766  0.11675236  0.50063407  1
  F  F467  1  0.03792234  0.61675236  0.74936593  1
  F  F468  1  0.46207766  0.49936593  0.86675236  1
  F  F469  1  0.78792234  0.25063407  0.36675236  1
  F  F470  1  0.96207766  0.75063407  0.88324764  1
  F  F471  1  0.28792234  0.99936593  0.38324764  1
  F  F472  1  0.99936593  0.88324764  0.78792234  1
  F  F473  1  0.75063407  0.38324764  0.46207766  1
  F  F474  1  0.25063407  0.86675236  0.28792234  1
  F  F475  1  0.49936593  0.36675236  0.96207766  1
  F  F476  1  0.38324764  0.96207766  0.25063407  1
  F  F477  1  0.88324764  0.28792234  0.49936593  1
  F  F478  1  0.36675236  0.46207766  0.99936593  1
  F  F479  1  0.86675236  0.78792234  0.75063407  1
  F  F480  1  0.43607221  0.43607221  0.84780508  1
  F  F481  1  0.31392779  0.81392779  0.34780508  1
  F  F482  1  0.81392779  0.93607221  0.90219492  1
  F  F483  1  0.93607221  0.31392779  0.40219492  1
  F  F484  1  0.84780508  0.43607221  0.43607221  1
  F  F485  1  0.34780508  0.31392779  0.81392779  1
  F  F486  1  0.90219492  0.81392779  0.93607221  1
  F  F487  1  0.40219492  0.93607221  0.31392779  1
  F  F488  1  0.43607221  0.84780508  0.43607221  1
  F  F489  1  0.81392779  0.34780508  0.31392779  1
  F  F490  1  0.93607221  0.90219492  0.81392779  1
  F  F491  1  0.31392779  0.40219492  0.93607221  1
  F  F492  1  0.18607221  0.68607221  0.65219492  1
  F  F493  1  0.56392779  0.56392779  0.15219492  1
  F  F494  1  0.68607221  0.06392779  0.59780508  1
  F  F495  1  0.06392779  0.18607221  0.09780508  1
  F  F496  1  0.18607221  0.09780508  0.06392779  1
  F  F497  1  0.06392779  0.59780508  0.68607221  1
  F  F498  1  0.56392779  0.15219492  0.56392779  1
  F  F499  1  0.68607221  0.65219492  0.18607221  1
  F  F500  1  0.59780508  0.68607221  0.06392779  1
  F  F501  1  0.09780508  0.06392779  0.18607221  1
  F  F502  1  0.65219492  0.18607221  0.68607221  1
  F  F503  1  0.15219492  0.56392779  0.56392779  1
  F  F504  1  0.43607221  0.93607221  0.34780508  1
  F  F505  1  0.31392779  0.31392779  0.84780508  1
  F  F506  1  0.81392779  0.43607221  0.40219492  1
  F  F507  1  0.93607221  0.81392779  0.90219492  1
  F  F508  1  0.84780508  0.93607221  0.93607221  1
  F  F509  1  0.34780508  0.81392779  0.31392779  1
  F  F510  1  0.90219492  0.31392779  0.43607221  1
  F  F511  1  0.40219492  0.43607221  0.81392779  1
  F  F512  1  0.43607221  0.34780508  0.93607221  1
  F  F513  1  0.81392779  0.84780508  0.81392779  1
  F  F514  1  0.93607221  0.40219492  0.31392779  1
  F  F515  1  0.31392779  0.90219492  0.43607221  1
  F  F516  1  0.18607221  0.18607221  0.15219492  1
  F  F517  1  0.56392779  0.06392779  0.65219492  1
  F  F518  1  0.68607221  0.56392779  0.09780508  1
  F  F519  1  0.06392779  0.68607221  0.59780508  1
  F  F520  1  0.18607221  0.59780508  0.56392779  1
  F  F521  1  0.06392779  0.09780508  0.18607221  1
  F  F522  1  0.56392779  0.65219492  0.06392779  1
  F  F523  1  0.68607221  0.15219492  0.68607221  1
  F  F524  1  0.59780508  0.18607221  0.56392779  1
  F  F525  1  0.09780508  0.56392779  0.68607221  1
  F  F526  1  0.65219492  0.68607221  0.18607221  1
  F  F527  1  0.15219492  0.06392779  0.06392779  1
  F  F528  1  0.93607221  0.43607221  0.34780508  1
  F  F529  1  0.81392779  0.81392779  0.84780508  1
  F  F530  1  0.31392779  0.93607221  0.40219492  1
  F  F531  1  0.43607221  0.31392779  0.90219492  1
  F  F532  1  0.34780508  0.43607221  0.93607221  1
  F  F533  1  0.84780508  0.31392779  0.31392779  1
  F  F534  1  0.40219492  0.81392779  0.43607221  1
  F  F535  1  0.90219492  0.93607221  0.81392779  1
  F  F536  1  0.93607221  0.84780508  0.93607221  1
  F  F537  1  0.31392779  0.34780508  0.81392779  1
  F  F538  1  0.43607221  0.90219492  0.31392779  1
  F  F539  1  0.81392779  0.40219492  0.43607221  1
  F  F540  1  0.68607221  0.68607221  0.15219492  1
  F  F541  1  0.06392779  0.56392779  0.65219492  1
  F  F542  1  0.18607221  0.06392779  0.09780508  1
  F  F543  1  0.56392779  0.18607221  0.59780508  1
  F  F544  1  0.68607221  0.09780508  0.56392779  1
  F  F545  1  0.56392779  0.59780508  0.18607221  1
  F  F546  1  0.06392779  0.15219492  0.06392779  1
  F  F547  1  0.18607221  0.65219492  0.68607221  1
  F  F548  1  0.09780508  0.68607221  0.56392779  1
  F  F549  1  0.59780508  0.06392779  0.68607221  1
  F  F550  1  0.15219492  0.18607221  0.18607221  1
  F  F551  1  0.65219492  0.56392779  0.06392779  1
  F  F552  1  0.93607221  0.93607221  0.84780508  1
  F  F553  1  0.81392779  0.31392779  0.34780508  1
  F  F554  1  0.31392779  0.43607221  0.90219492  1
  F  F555  1  0.43607221  0.81392779  0.40219492  1
  F  F556  1  0.34780508  0.93607221  0.43607221  1
  F  F557  1  0.84780508  0.81392779  0.81392779  1
  F  F558  1  0.40219492  0.31392779  0.93607221  1
  F  F559  1  0.90219492  0.43607221  0.31392779  1
  F  F560  1  0.93607221  0.34780508  0.43607221  1
  F  F561  1  0.31392779  0.84780508  0.31392779  1
  F  F562  1  0.43607221  0.40219492  0.81392779  1
  F  F563  1  0.81392779  0.90219492  0.93607221  1
  F  F564  1  0.68607221  0.18607221  0.65219492  1
  F  F565  1  0.06392779  0.06392779  0.15219492  1
  F  F566  1  0.18607221  0.56392779  0.59780508  1
  F  F567  1  0.56392779  0.68607221  0.09780508  1
  F  F568  1  0.68607221  0.59780508  0.06392779  1
  F  F569  1  0.56392779  0.09780508  0.68607221  1
  F  F570  1  0.06392779  0.65219492  0.56392779  1
  F  F571  1  0.18607221  0.15219492  0.18607221  1
  F  F572  1  0.09780508  0.18607221  0.06392779  1
  F  F573  1  0.59780508  0.56392779  0.18607221  1
  F  F574  1  0.15219492  0.68607221  0.68607221  1
  F  F575  1  0.65219492  0.06392779  0.56392779  1
  F  F576  1  0.00000000  0.10482055  0.89517945  1
  F  F577  1  0.75000000  0.14517945  0.39517945  1
  F  F578  1  0.25000000  0.60482055  0.85482055  1
  F  F579  1  0.50000000  0.64517945  0.35482055  1
  F  F580  1  0.89517945  0.00000000  0.10482055  1
  F  F581  1  0.39517945  0.75000000  0.14517945  1
  F  F582  1  0.85482055  0.25000000  0.60482055  1
  F  F583  1  0.35482055  0.50000000  0.64517945  1
  F  F584  1  0.10482055  0.89517945  0.00000000  1
  F  F585  1  0.14517945  0.39517945  0.75000000  1
  F  F586  1  0.60482055  0.85482055  0.25000000  1
  F  F587  1  0.64517945  0.35482055  0.50000000  1
  F  F588  1  0.00000000  0.89517945  0.10482055  1
  F  F589  1  0.25000000  0.85482055  0.60482055  1
  F  F590  1  0.75000000  0.39517945  0.14517945  1
  F  F591  1  0.50000000  0.35482055  0.64517945  1
  F  F592  1  0.10482055  0.00000000  0.89517945  1
  F  F593  1  0.60482055  0.25000000  0.85482055  1
  F  F594  1  0.14517945  0.75000000  0.39517945  1
  F  F595  1  0.64517945  0.50000000  0.35482055  1
  F  F596  1  0.89517945  0.10482055  0.00000000  1
  F  F597  1  0.85482055  0.60482055  0.25000000  1
  F  F598  1  0.39517945  0.14517945  0.75000000  1
  F  F599  1  0.35482055  0.64517945  0.50000000  1
  F  F600  1  0.00000000  0.60482055  0.39517945  1
  F  F601  1  0.75000000  0.64517945  0.89517945  1
  F  F602  1  0.25000000  0.10482055  0.35482055  1
  F  F603  1  0.50000000  0.14517945  0.85482055  1
  F  F604  1  0.89517945  0.50000000  0.60482055  1
  F  F605  1  0.39517945  0.25000000  0.64517945  1
  F  F606  1  0.85482055  0.75000000  0.10482055  1
  F  F607  1  0.35482055  0.00000000  0.14517945  1
  F  F608  1  0.10482055  0.39517945  0.50000000  1
  F  F609  1  0.14517945  0.89517945  0.25000000  1
  F  F610  1  0.60482055  0.35482055  0.75000000  1
  F  F611  1  0.64517945  0.85482055  0.00000000  1
  F  F612  1  0.00000000  0.39517945  0.60482055  1
  F  F613  1  0.25000000  0.35482055  0.10482055  1
  F  F614  1  0.75000000  0.89517945  0.64517945  1
  F  F615  1  0.50000000  0.85482055  0.14517945  1
  F  F616  1  0.10482055  0.50000000  0.39517945  1
  F  F617  1  0.60482055  0.75000000  0.35482055  1
  F  F618  1  0.14517945  0.25000000  0.89517945  1
  F  F619  1  0.64517945  0.00000000  0.85482055  1
  F  F620  1  0.89517945  0.60482055  0.50000000  1
  F  F621  1  0.85482055  0.10482055  0.75000000  1
  F  F622  1  0.39517945  0.64517945  0.25000000  1
  F  F623  1  0.35482055  0.14517945  0.00000000  1
  F  F624  1  0.50000000  0.10482055  0.39517945  1
  F  F625  1  0.25000000  0.14517945  0.89517945  1
  F  F626  1  0.75000000  0.60482055  0.35482055  1
  F  F627  1  0.00000000  0.64517945  0.85482055  1
  F  F628  1  0.39517945  0.00000000  0.60482055  1
  F  F629  1  0.89517945  0.75000000  0.64517945  1
  F  F630  1  0.35482055  0.25000000  0.10482055  1
  F  F631  1  0.85482055  0.50000000  0.14517945  1
  F  F632  1  0.60482055  0.89517945  0.50000000  1
  F  F633  1  0.64517945  0.39517945  0.25000000  1
  F  F634  1  0.10482055  0.85482055  0.75000000  1
  F  F635  1  0.14517945  0.35482055  0.00000000  1
  F  F636  1  0.50000000  0.89517945  0.60482055  1
  F  F637  1  0.75000000  0.85482055  0.10482055  1
  F  F638  1  0.25000000  0.39517945  0.64517945  1
  F  F639  1  0.00000000  0.35482055  0.14517945  1
  F  F640  1  0.60482055  0.00000000  0.39517945  1
  F  F641  1  0.10482055  0.25000000  0.35482055  1
  F  F642  1  0.64517945  0.75000000  0.89517945  1
  F  F643  1  0.14517945  0.50000000  0.85482055  1
  F  F644  1  0.39517945  0.10482055  0.50000000  1
  F  F645  1  0.35482055  0.60482055  0.75000000  1
  F  F646  1  0.89517945  0.14517945  0.25000000  1
  F  F647  1  0.85482055  0.64517945  0.00000000  1
  F  F648  1  0.50000000  0.60482055  0.89517945  1
  F  F649  1  0.25000000  0.64517945  0.39517945  1
  F  F650  1  0.75000000  0.10482055  0.85482055  1
  F  F651  1  0.00000000  0.14517945  0.35482055  1
  F  F652  1  0.39517945  0.50000000  0.10482055  1
  F  F653  1  0.89517945  0.25000000  0.14517945  1
  F  F654  1  0.35482055  0.75000000  0.60482055  1
  F  F655  1  0.85482055  0.00000000  0.64517945  1
  F  F656  1  0.60482055  0.39517945  0.00000000  1
  F  F657  1  0.64517945  0.89517945  0.75000000  1
  F  F658  1  0.10482055  0.35482055  0.25000000  1
  F  F659  1  0.14517945  0.85482055  0.50000000  1
  F  F660  1  0.50000000  0.39517945  0.10482055  1
  F  F661  1  0.75000000  0.35482055  0.60482055  1
  F  F662  1  0.25000000  0.89517945  0.14517945  1
  F  F663  1  0.00000000  0.85482055  0.64517945  1
  F  F664  1  0.60482055  0.50000000  0.89517945  1
  F  F665  1  0.10482055  0.75000000  0.85482055  1
  F  F666  1  0.64517945  0.25000000  0.39517945  1
  F  F667  1  0.14517945  0.00000000  0.35482055  1
  F  F668  1  0.39517945  0.60482055  0.00000000  1
  F  F669  1  0.35482055  0.10482055  0.25000000  1
  F  F670  1  0.89517945  0.64517945  0.75000000  1
  F  F671  1  0.85482055  0.14517945  0.50000000  1
  Li  Li672  1  0.24598533  0.24598533  0.24598533  1
  Li  Li673  1  0.50401467  0.00401467  0.74598533  1
  Li  Li674  1  0.00401467  0.74598533  0.50401467  1
  Li  Li675  1  0.74598533  0.50401467  0.00401467  1
  Li  Li676  1  0.99598533  0.49598533  0.25401467  1
  Li  Li677  1  0.75401467  0.75401467  0.75401467  1
  Li  Li678  1  0.49598533  0.25401467  0.99598533  1
  Li  Li679  1  0.25401467  0.99598533  0.49598533  1
  Li  Li680  1  0.24598533  0.74598533  0.74598533  1
  Li  Li681  1  0.50401467  0.50401467  0.24598533  1
  Li  Li682  1  0.00401467  0.24598533  0.00401467  1
  Li  Li683  1  0.74598533  0.00401467  0.50401467  1
  Li  Li684  1  0.99598533  0.99598533  0.75401467  1
  Li  Li685  1  0.75401467  0.25401467  0.25401467  1
  Li  Li686  1  0.49598533  0.75401467  0.49598533  1
  Li  Li687  1  0.25401467  0.49598533  0.99598533  1
  Li  Li688  1  0.74598533  0.24598533  0.74598533  1
  Li  Li689  1  0.00401467  0.00401467  0.24598533  1
  Li  Li690  1  0.50401467  0.74598533  0.00401467  1
  Li  Li691  1  0.24598533  0.50401467  0.50401467  1
  Li  Li692  1  0.49598533  0.49598533  0.75401467  1
  Li  Li693  1  0.25401467  0.75401467  0.25401467  1
  Li  Li694  1  0.99598533  0.25401467  0.49598533  1
  Li  Li695  1  0.75401467  0.99598533  0.99598533  1
  Li  Li696  1  0.74598533  0.74598533  0.24598533  1
  Li  Li697  1  0.00401467  0.50401467  0.74598533  1
  Li  Li698  1  0.50401467  0.24598533  0.50401467  1
  Li  Li699  1  0.24598533  0.00401467  0.00401467  1
  Li  Li700  1  0.49598533  0.99598533  0.25401467  1
  Li  Li701  1  0.25401467  0.25401467  0.75401467  1
  Li  Li702  1  0.99598533  0.75401467  0.99598533  1
  Li  Li703  1  0.75401467  0.49598533  0.49598533  1
  Li  Li704  1  0.63161452  0.00532121  0.18265759  1
  Li  Li705  1  0.11838548  0.24467879  0.68265759  1
  Li  Li706  1  0.61838548  0.50532121  0.56734241  1
  Li  Li707  1  0.13161452  0.74467879  0.06734241  1
  Li  Li708  1  0.18265759  0.63161452  0.00532121  1
  Li  Li709  1  0.68265759  0.11838548  0.24467879  1
  Li  Li710  1  0.56734241  0.61838548  0.50532121  1
  Li  Li711  1  0.06734241  0.13161452  0.74467879  1
  Li  Li712  1  0.00532121  0.18265759  0.63161452  1
  Li  Li713  1  0.24467879  0.68265759  0.11838548  1
  Li  Li714  1  0.50532121  0.56734241  0.61838548  1
  Li  Li715  1  0.74467879  0.06734241  0.13161452  1
  Li  Li716  1  0.75532121  0.88161452  0.31734241  1
  Li  Li717  1  0.99467879  0.36838548  0.81734241  1
  Li  Li718  1  0.25532121  0.86838548  0.93265759  1
  Li  Li719  1  0.49467879  0.38161452  0.43265759  1
  Li  Li720  1  0.38161452  0.43265759  0.49467879  1
  Li  Li721  1  0.86838548  0.93265759  0.25532121  1
  Li  Li722  1  0.36838548  0.81734241  0.99467879  1
  Li  Li723  1  0.88161452  0.31734241  0.75532121  1
  Li  Li724  1  0.93265759  0.25532121  0.86838548  1
  Li  Li725  1  0.43265759  0.49467879  0.38161452  1
  Li  Li726  1  0.31734241  0.75532121  0.88161452  1
  Li  Li727  1  0.81734241  0.99467879  0.36838548  1
  Li  Li728  1  0.36838548  0.99467879  0.81734241  1
  Li  Li729  1  0.88161452  0.75532121  0.31734241  1
  Li  Li730  1  0.38161452  0.49467879  0.43265759  1
  Li  Li731  1  0.86838548  0.25532121  0.93265759  1
  Li  Li732  1  0.81734241  0.36838548  0.99467879  1
  Li  Li733  1  0.31734241  0.88161452  0.75532121  1
  Li  Li734  1  0.43265759  0.38161452  0.49467879  1
  Li  Li735  1  0.93265759  0.86838548  0.25532121  1
  Li  Li736  1  0.99467879  0.81734241  0.36838548  1
  Li  Li737  1  0.75532121  0.31734241  0.88161452  1
  Li  Li738  1  0.49467879  0.43265759  0.38161452  1
  Li  Li739  1  0.25532121  0.93265759  0.86838548  1
  Li  Li740  1  0.24467879  0.11838548  0.68265759  1
  Li  Li741  1  0.00532121  0.63161452  0.18265759  1
  Li  Li742  1  0.74467879  0.13161452  0.06734241  1
  Li  Li743  1  0.50532121  0.61838548  0.56734241  1
  Li  Li744  1  0.61838548  0.56734241  0.50532121  1
  Li  Li745  1  0.13161452  0.06734241  0.74467879  1
  Li  Li746  1  0.63161452  0.18265759  0.00532121  1
  Li  Li747  1  0.11838548  0.68265759  0.24467879  1
  Li  Li748  1  0.06734241  0.74467879  0.13161452  1
  Li  Li749  1  0.56734241  0.50532121  0.61838548  1
  Li  Li750  1  0.68265759  0.24467879  0.11838548  1
  Li  Li751  1  0.18265759  0.00532121  0.63161452  1
  Li  Li752  1  0.63161452  0.50532121  0.68265759  1
  Li  Li753  1  0.11838548  0.74467879  0.18265759  1
  Li  Li754  1  0.61838548  0.00532121  0.06734241  1
  Li  Li755  1  0.13161452  0.24467879  0.56734241  1
  Li  Li756  1  0.18265759  0.13161452  0.50532121  1
  Li  Li757  1  0.68265759  0.61838548  0.74467879  1
  Li  Li758  1  0.56734241  0.11838548  0.00532121  1
  Li  Li759  1  0.06734241  0.63161452  0.24467879  1
  Li  Li760  1  0.00532121  0.68265759  0.13161452  1
  Li  Li761  1  0.24467879  0.18265759  0.61838548  1
  Li  Li762  1  0.50532121  0.06734241  0.11838548  1
  Li  Li763  1  0.74467879  0.56734241  0.63161452  1
  Li  Li764  1  0.75532121  0.38161452  0.81734241  1
  Li  Li765  1  0.99467879  0.86838548  0.31734241  1
  Li  Li766  1  0.25532121  0.36838548  0.43265759  1
  Li  Li767  1  0.49467879  0.88161452  0.93265759  1
  Li  Li768  1  0.38161452  0.93265759  0.99467879  1
  Li  Li769  1  0.86838548  0.43265759  0.75532121  1
  Li  Li770  1  0.36838548  0.31734241  0.49467879  1
  Li  Li771  1  0.88161452  0.81734241  0.25532121  1
  Li  Li772  1  0.93265759  0.75532121  0.36838548  1
  Li  Li773  1  0.43265759  0.99467879  0.88161452  1
  Li  Li774  1  0.31734241  0.25532121  0.38161452  1
  Li  Li775  1  0.81734241  0.49467879  0.86838548  1
  Li  Li776  1  0.36838548  0.49467879  0.31734241  1
  Li  Li777  1  0.88161452  0.25532121  0.81734241  1
  Li  Li778  1  0.38161452  0.99467879  0.93265759  1
  Li  Li779  1  0.86838548  0.75532121  0.43265759  1
  Li  Li780  1  0.81734241  0.86838548  0.49467879  1
  Li  Li781  1  0.31734241  0.38161452  0.25532121  1
  Li  Li782  1  0.43265759  0.88161452  0.99467879  1
  Li  Li783  1  0.93265759  0.36838548  0.75532121  1
  Li  Li784  1  0.99467879  0.31734241  0.86838548  1
  Li  Li785  1  0.75532121  0.81734241  0.38161452  1
  Li  Li786  1  0.49467879  0.93265759  0.88161452  1
  Li  Li787  1  0.25532121  0.43265759  0.36838548  1
  Li  Li788  1  0.24467879  0.61838548  0.18265759  1
  Li  Li789  1  0.00532121  0.13161452  0.68265759  1
  Li  Li790  1  0.74467879  0.63161452  0.56734241  1
  Li  Li791  1  0.50532121  0.11838548  0.06734241  1
  Li  Li792  1  0.61838548  0.06734241  0.00532121  1
  Li  Li793  1  0.13161452  0.56734241  0.24467879  1
  Li  Li794  1  0.63161452  0.68265759  0.50532121  1
  Li  Li795  1  0.11838548  0.18265759  0.74467879  1
  Li  Li796  1  0.06734241  0.24467879  0.63161452  1
  Li  Li797  1  0.56734241  0.00532121  0.11838548  1
  Li  Li798  1  0.68265759  0.74467879  0.61838548  1
  Li  Li799  1  0.18265759  0.50532121  0.13161452  1
  Li  Li800  1  0.13161452  0.00532121  0.68265759  1
  Li  Li801  1  0.61838548  0.24467879  0.18265759  1
  Li  Li802  1  0.11838548  0.50532121  0.06734241  1
  Li  Li803  1  0.63161452  0.74467879  0.56734241  1
  Li  Li804  1  0.68265759  0.63161452  0.50532121  1
  Li  Li805  1  0.18265759  0.11838548  0.74467879  1
  Li  Li806  1  0.06734241  0.61838548  0.00532121  1
  Li  Li807  1  0.56734241  0.13161452  0.24467879  1
  Li  Li808  1  0.50532121  0.18265759  0.13161452  1
  Li  Li809  1  0.74467879  0.68265759  0.61838548  1
  Li  Li810  1  0.00532121  0.56734241  0.11838548  1
  Li  Li811  1  0.24467879  0.06734241  0.63161452  1
  Li  Li812  1  0.25532121  0.88161452  0.81734241  1
  Li  Li813  1  0.49467879  0.36838548  0.31734241  1
  Li  Li814  1  0.75532121  0.86838548  0.43265759  1
  Li  Li815  1  0.99467879  0.38161452  0.93265759  1
  Li  Li816  1  0.88161452  0.43265759  0.99467879  1
  Li  Li817  1  0.36838548  0.93265759  0.75532121  1
  Li  Li818  1  0.86838548  0.81734241  0.49467879  1
  Li  Li819  1  0.38161452  0.31734241  0.25532121  1
  Li  Li820  1  0.43265759  0.25532121  0.36838548  1
  Li  Li821  1  0.93265759  0.49467879  0.88161452  1
  Li  Li822  1  0.81734241  0.75532121  0.38161452  1
  Li  Li823  1  0.31734241  0.99467879  0.86838548  1
  Li  Li824  1  0.86838548  0.99467879  0.31734241  1
  Li  Li825  1  0.38161452  0.75532121  0.81734241  1
  Li  Li826  1  0.88161452  0.49467879  0.93265759  1
  Li  Li827  1  0.36838548  0.25532121  0.43265759  1
  Li  Li828  1  0.31734241  0.36838548  0.49467879  1
  Li  Li829  1  0.81734241  0.88161452  0.25532121  1
  Li  Li830  1  0.93265759  0.38161452  0.99467879  1
  Li  Li831  1  0.43265759  0.86838548  0.75532121  1
  Li  Li832  1  0.49467879  0.81734241  0.86838548  1
  Li  Li833  1  0.25532121  0.31734241  0.38161452  1
  Li  Li834  1  0.99467879  0.43265759  0.88161452  1
  Li  Li835  1  0.75532121  0.93265759  0.36838548  1
  Li  Li836  1  0.74467879  0.11838548  0.18265759  1
  Li  Li837  1  0.50532121  0.63161452  0.68265759  1
  Li  Li838  1  0.24467879  0.13161452  0.56734241  1
  Li  Li839  1  0.00532121  0.61838548  0.06734241  1
  Li  Li840  1  0.11838548  0.56734241  0.00532121  1
  Li  Li841  1  0.63161452  0.06734241  0.24467879  1
  Li  Li842  1  0.13161452  0.18265759  0.50532121  1
  Li  Li843  1  0.61838548  0.68265759  0.74467879  1
  Li  Li844  1  0.56734241  0.74467879  0.63161452  1
  Li  Li845  1  0.06734241  0.50532121  0.11838548  1
  Li  Li846  1  0.18265759  0.24467879  0.61838548  1
  Li  Li847  1  0.68265759  0.00532121  0.13161452  1
  Li  Li848  1  0.13161452  0.50532121  0.18265759  1
  Li  Li849  1  0.61838548  0.74467879  0.68265759  1
  Li  Li850  1  0.11838548  0.00532121  0.56734241  1
  Li  Li851  1  0.63161452  0.24467879  0.06734241  1
  Li  Li852  1  0.68265759  0.13161452  0.00532121  1
  Li  Li853  1  0.18265759  0.61838548  0.24467879  1
  Li  Li854  1  0.06734241  0.11838548  0.50532121  1
  Li  Li855  1  0.56734241  0.63161452  0.74467879  1
  Li  Li856  1  0.50532121  0.68265759  0.63161452  1
  Li  Li857  1  0.74467879  0.18265759  0.11838548  1
  Li  Li858  1  0.00532121  0.06734241  0.61838548  1
  Li  Li859  1  0.24467879  0.56734241  0.13161452  1
  Li  Li860  1  0.25532121  0.38161452  0.31734241  1
  Li  Li861  1  0.49467879  0.86838548  0.81734241  1
  Li  Li862  1  0.75532121  0.36838548  0.93265759  1
  Li  Li863  1  0.99467879  0.88161452  0.43265759  1
  Li  Li864  1  0.88161452  0.93265759  0.49467879  1
  Li  Li865  1  0.36838548  0.43265759  0.25532121  1
  Li  Li866  1  0.86838548  0.31734241  0.99467879  1
  Li  Li867  1  0.38161452  0.81734241  0.75532121  1
  Li  Li868  1  0.43265759  0.75532121  0.86838548  1
  Li  Li869  1  0.93265759  0.99467879  0.38161452  1
  Li  Li870  1  0.81734241  0.25532121  0.88161452  1
  Li  Li871  1  0.31734241  0.49467879  0.36838548  1
  Li  Li872  1  0.86838548  0.49467879  0.81734241  1
  Li  Li873  1  0.38161452  0.25532121  0.31734241  1
  Li  Li874  1  0.88161452  0.99467879  0.43265759  1
  Li  Li875  1  0.36838548  0.75532121  0.93265759  1
  Li  Li876  1  0.31734241  0.86838548  0.99467879  1
  Li  Li877  1  0.81734241  0.38161452  0.75532121  1
  Li  Li878  1  0.93265759  0.88161452  0.49467879  1
  Li  Li879  1  0.43265759  0.36838548  0.25532121  1
  Li  Li880  1  0.49467879  0.31734241  0.36838548  1
  Li  Li881  1  0.25532121  0.81734241  0.88161452  1
  Li  Li882  1  0.99467879  0.93265759  0.38161452  1
  Li  Li883  1  0.75532121  0.43265759  0.86838548  1
  Li  Li884  1  0.74467879  0.61838548  0.68265759  1
  Li  Li885  1  0.50532121  0.13161452  0.18265759  1
  Li  Li886  1  0.24467879  0.63161452  0.06734241  1
  Li  Li887  1  0.00532121  0.11838548  0.56734241  1
  Li  Li888  1  0.11838548  0.06734241  0.50532121  1
  Li  Li889  1  0.63161452  0.56734241  0.74467879  1
  Li  Li890  1  0.13161452  0.68265759  0.00532121  1
  Li  Li891  1  0.61838548  0.18265759  0.24467879  1
  Li  Li892  1  0.56734241  0.24467879  0.13161452  1
  Li  Li893  1  0.06734241  0.00532121  0.61838548  1
  Li  Li894  1  0.18265759  0.74467879  0.11838548  1
  Li  Li895  1  0.68265759  0.50532121  0.63161452  1
  Li  Li896  1  0.24272148  0.12500000  0.12500000  1
  Li  Li897  1  0.50727852  0.12500000  0.62500000  1
  Li  Li898  1  0.12500000  0.24272148  0.12500000  1
  Li  Li899  1  0.62500000  0.50727852  0.12500000  1
  Li  Li900  1  0.12500000  0.12500000  0.24272148  1
  Li  Li901  1  0.12500000  0.62500000  0.50727852  1
  Li  Li902  1  0.87500000  0.49272148  0.37500000  1
  Li  Li903  1  0.87500000  0.75727852  0.87500000  1
  Li  Li904  1  0.99272148  0.37500000  0.37500000  1
  Li  Li905  1  0.25727852  0.87500000  0.37500000  1
  Li  Li906  1  0.87500000  0.37500000  0.25727852  1
  Li  Li907  1  0.37500000  0.37500000  0.99272148  1
  Li  Li908  1  0.24272148  0.62500000  0.62500000  1
  Li  Li909  1  0.50727852  0.62500000  0.12500000  1
  Li  Li910  1  0.12500000  0.74272148  0.62500000  1
  Li  Li911  1  0.62500000  0.00727852  0.62500000  1
  Li  Li912  1  0.12500000  0.62500000  0.74272148  1
  Li  Li913  1  0.12500000  0.12500000  0.00727852  1
  Li  Li914  1  0.87500000  0.99272148  0.87500000  1
  Li  Li915  1  0.87500000  0.25727852  0.37500000  1
  Li  Li916  1  0.99272148  0.87500000  0.87500000  1
  Li  Li917  1  0.25727852  0.37500000  0.87500000  1
  Li  Li918  1  0.87500000  0.87500000  0.75727852  1
  Li  Li919  1  0.37500000  0.87500000  0.49272148  1
  Li  Li920  1  0.74272148  0.12500000  0.62500000  1
  Li  Li921  1  0.00727852  0.12500000  0.12500000  1
  Li  Li922  1  0.62500000  0.24272148  0.62500000  1
  Li  Li923  1  0.12500000  0.50727852  0.62500000  1
  Li  Li924  1  0.62500000  0.12500000  0.74272148  1
  Li  Li925  1  0.62500000  0.62500000  0.00727852  1
  Li  Li926  1  0.37500000  0.49272148  0.87500000  1
  Li  Li927  1  0.37500000  0.75727852  0.37500000  1
  Li  Li928  1  0.49272148  0.37500000  0.87500000  1
  Li  Li929  1  0.75727852  0.87500000  0.87500000  1
  Li  Li930  1  0.37500000  0.37500000  0.75727852  1
  Li  Li931  1  0.87500000  0.37500000  0.49272148  1
  Li  Li932  1  0.74272148  0.62500000  0.12500000  1
  Li  Li933  1  0.00727852  0.62500000  0.62500000  1
  Li  Li934  1  0.62500000  0.74272148  0.12500000  1
  Li  Li935  1  0.12500000  0.00727852  0.12500000  1
  Li  Li936  1  0.62500000  0.62500000  0.24272148  1
  Li  Li937  1  0.62500000  0.12500000  0.50727852  1
  Li  Li938  1  0.37500000  0.99272148  0.37500000  1
  Li  Li939  1  0.37500000  0.25727852  0.87500000  1
  Li  Li940  1  0.49272148  0.87500000  0.37500000  1
  Li  Li941  1  0.75727852  0.37500000  0.37500000  1
  Li  Li942  1  0.37500000  0.87500000  0.25727852  1
  Li  Li943  1  0.87500000  0.87500000  0.99272148  1
  Li  Li944  1  0.12500000  0.12500000  0.12500000  1
  Li  Li945  1  0.87500000  0.37500000  0.37500000  1
  Li  Li946  1  0.12500000  0.62500000  0.62500000  1
  Li  Li947  1  0.87500000  0.87500000  0.87500000  1
  Li  Li948  1  0.62500000  0.12500000  0.62500000  1
  Li  Li949  1  0.37500000  0.37500000  0.87500000  1
  Li  Li950  1  0.62500000  0.62500000  0.12500000  1
  Li  Li951  1  0.37500000  0.87500000  0.37500000  1
  Li  Li952  1  0.37500000  0.37500000  0.37500000  1
  Li  Li953  1  0.12500000  0.62500000  0.12500000  1
  Li  Li954  1  0.37500000  0.87500000  0.87500000  1
  Li  Li955  1  0.12500000  0.12500000  0.62500000  1
  Li  Li956  1  0.87500000  0.37500000  0.87500000  1
  Li  Li957  1  0.62500000  0.62500000  0.62500000  1
  Li  Li958  1  0.87500000  0.87500000  0.37500000  1
  Li  Li959  1  0.62500000  0.12500000  0.12500000  1
  Na  Na960  1  0.41440055  0.41440055  0.77135965  1
  Na  Na961  1  0.33559945  0.83559945  0.27135965  1
  Na  Na962  1  0.83559945  0.91440055  0.97864035  1
  Na  Na963  1  0.91440055  0.33559945  0.47864035  1
  Na  Na964  1  0.77135965  0.41440055  0.41440055  1
  Na  Na965  1  0.27135965  0.33559945  0.83559945  1
  Na  Na966  1  0.97864035  0.83559945  0.91440055  1
  Na  Na967  1  0.47864035  0.91440055  0.33559945  1
  Na  Na968  1  0.41440055  0.77135965  0.41440055  1
  Na  Na969  1  0.83559945  0.27135965  0.33559945  1
  Na  Na970  1  0.91440055  0.97864035  0.83559945  1
  Na  Na971  1  0.33559945  0.47864035  0.91440055  1
  Na  Na972  1  0.16440055  0.66440055  0.72864035  1
  Na  Na973  1  0.58559945  0.58559945  0.22864035  1
  Na  Na974  1  0.66440055  0.08559945  0.52135965  1
  Na  Na975  1  0.08559945  0.16440055  0.02135965  1
  Na  Na976  1  0.16440055  0.02135965  0.08559945  1
  Na  Na977  1  0.08559945  0.52135965  0.66440055  1
  Na  Na978  1  0.58559945  0.22864035  0.58559945  1
  Na  Na979  1  0.66440055  0.72864035  0.16440055  1
  Na  Na980  1  0.52135965  0.66440055  0.08559945  1
  Na  Na981  1  0.02135965  0.08559945  0.16440055  1
  Na  Na982  1  0.72864035  0.16440055  0.66440055  1
  Na  Na983  1  0.22864035  0.58559945  0.58559945  1
  Na  Na984  1  0.41440055  0.91440055  0.27135965  1
  Na  Na985  1  0.33559945  0.33559945  0.77135965  1
  Na  Na986  1  0.83559945  0.41440055  0.47864035  1
  Na  Na987  1  0.91440055  0.83559945  0.97864035  1
  Na  Na988  1  0.77135965  0.91440055  0.91440055  1
  Na  Na989  1  0.27135965  0.83559945  0.33559945  1
  Na  Na990  1  0.97864035  0.33559945  0.41440055  1
  Na  Na991  1  0.47864035  0.41440055  0.83559945  1
  Na  Na992  1  0.41440055  0.27135965  0.91440055  1
  Na  Na993  1  0.83559945  0.77135965  0.83559945  1
  Na  Na994  1  0.91440055  0.47864035  0.33559945  1
  Na  Na995  1  0.33559945  0.97864035  0.41440055  1
  Na  Na996  1  0.16440055  0.16440055  0.22864035  1
  Na  Na997  1  0.58559945  0.08559945  0.72864035  1
  Na  Na998  1  0.66440055  0.58559945  0.02135965  1
  Na  Na999  1  0.08559945  0.66440055  0.52135965  1
  Na  Na1000  1  0.16440055  0.52135965  0.58559945  1
  Na  Na1001  1  0.08559945  0.02135965  0.16440055  1
  Na  Na1002  1  0.58559945  0.72864035  0.08559945  1
  Na  Na1003  1  0.66440055  0.22864035  0.66440055  1
  Na  Na1004  1  0.52135965  0.16440055  0.58559945  1
  Na  Na1005  1  0.02135965  0.58559945  0.66440055  1
  Na  Na1006  1  0.72864035  0.66440055  0.16440055  1
  Na  Na1007  1  0.22864035  0.08559945  0.08559945  1
  Na  Na1008  1  0.91440055  0.41440055  0.27135965  1
  Na  Na1009  1  0.83559945  0.83559945  0.77135965  1
  Na  Na1010  1  0.33559945  0.91440055  0.47864035  1
  Na  Na1011  1  0.41440055  0.33559945  0.97864035  1
  Na  Na1012  1  0.27135965  0.41440055  0.91440055  1
  Na  Na1013  1  0.77135965  0.33559945  0.33559945  1
  Na  Na1014  1  0.47864035  0.83559945  0.41440055  1
  Na  Na1015  1  0.97864035  0.91440055  0.83559945  1
  Na  Na1016  1  0.91440055  0.77135965  0.91440055  1
  Na  Na1017  1  0.33559945  0.27135965  0.83559945  1
  Na  Na1018  1  0.41440055  0.97864035  0.33559945  1
  Na  Na1019  1  0.83559945  0.47864035  0.41440055  1
  Na  Na1020  1  0.66440055  0.66440055  0.22864035  1
  Na  Na1021  1  0.08559945  0.58559945  0.72864035  1
  Na  Na1022  1  0.16440055  0.08559945  0.02135965  1
  Na  Na1023  1  0.58559945  0.16440055  0.52135965  1
  Na  Na1024  1  0.66440055  0.02135965  0.58559945  1
  Na  Na1025  1  0.58559945  0.52135965  0.16440055  1
  Na  Na1026  1  0.08559945  0.22864035  0.08559945  1
  Na  Na1027  1  0.16440055  0.72864035  0.66440055  1
  Na  Na1028  1  0.02135965  0.66440055  0.58559945  1
  Na  Na1029  1  0.52135965  0.08559945  0.66440055  1
  Na  Na1030  1  0.22864035  0.16440055  0.16440055  1
  Na  Na1031  1  0.72864035  0.58559945  0.08559945  1
  Na  Na1032  1  0.91440055  0.91440055  0.77135965  1
  Na  Na1033  1  0.83559945  0.33559945  0.27135965  1
  Na  Na1034  1  0.33559945  0.41440055  0.97864035  1
  Na  Na1035  1  0.41440055  0.83559945  0.47864035  1
  Na  Na1036  1  0.27135965  0.91440055  0.41440055  1
  Na  Na1037  1  0.77135965  0.83559945  0.83559945  1
  Na  Na1038  1  0.47864035  0.33559945  0.91440055  1
  Na  Na1039  1  0.97864035  0.41440055  0.33559945  1
  Na  Na1040  1  0.91440055  0.27135965  0.41440055  1
  Na  Na1041  1  0.33559945  0.77135965  0.33559945  1
  Na  Na1042  1  0.41440055  0.47864035  0.83559945  1
  Na  Na1043  1  0.83559945  0.97864035  0.91440055  1
  Na  Na1044  1  0.66440055  0.16440055  0.72864035  1
  Na  Na1045  1  0.08559945  0.08559945  0.22864035  1
  Na  Na1046  1  0.16440055  0.58559945  0.52135965  1
  Na  Na1047  1  0.58559945  0.66440055  0.02135965  1
  Na  Na1048  1  0.66440055  0.52135965  0.08559945  1
  Na  Na1049  1  0.58559945  0.02135965  0.66440055  1
  Na  Na1050  1  0.08559945  0.72864035  0.58559945  1
  Na  Na1051  1  0.16440055  0.22864035  0.16440055  1
  Na  Na1052  1  0.02135965  0.16440055  0.08559945  1
  Na  Na1053  1  0.52135965  0.58559945  0.16440055  1
  Na  Na1054  1  0.22864035  0.66440055  0.66440055  1
  Na  Na1055  1  0.72864035  0.08559945  0.58559945  1
