# generated using pymatgen
data_Li2Zr(Br2Cl)2
_symmetry_space_group_name_H-M   'P 1'
_cell_length_a   24.20584733
_cell_length_b   24.20584733
_cell_length_c   35.13028636
_cell_angle_alpha   90.00000000
_cell_angle_beta   90.00000000
_cell_angle_gamma   90.00000000
_symmetry_Int_Tables_number   1
_chemical_formula_structural   Li2Zr(Br2Cl)2
_chemical_formula_sum   'Li192 Zr96 Br384 Cl192'
_cell_volume   20583.64434787
_cell_formula_units_Z   96
loop_
 _symmetry_equiv_pos_site_id
 _symmetry_equiv_pos_as_xyz
  1  'x, y, z'
loop_
 _atom_site_type_symbol
 _atom_site_label
 _atom_site_symmetry_multiplicity
 _atom_site_fract_x
 _atom_site_fract_y
 _atom_site_fract_z
 _atom_site_occupancy
  Br  Br0  1  0.18621031  0.00000000  0.25000000  1
  Br  Br1  1  0.31378969  0.00000000  0.75000000  1
  Br  Br2  1  0.25000000  0.93621031  0.50000000  1
  Br  Br3  1  0.25000000  0.06378969  -0.00000000  1
  Br  Br4  1  0.81378969  0.00000000  0.75000000  1
  Br  Br5  1  0.68621031  0.00000000  0.25000000  1
  Br  Br6  1  0.75000000  0.06378969  0.50000000  1
  Br  Br7  1  0.75000000  0.93621031  -0.00000000  1
  Br  Br8  1  0.68621031  0.50000000  0.75000000  1
  Br  Br9  1  0.81378969  0.50000000  0.25000000  1
  Br  Br10  1  0.75000000  0.43621031  -0.00000000  1
  Br  Br11  1  0.75000000  0.56378969  0.50000000  1
  Br  Br12  1  0.31378969  0.50000000  0.25000000  1
  Br  Br13  1  0.18621031  0.50000000  0.75000000  1
  Br  Br14  1  0.25000000  0.56378969  -0.00000000  1
  Br  Br15  1  0.25000000  0.43621031  0.50000000  1
  Br  Br16  1  0.87252285  0.19837687  0.76577831  1
  Br  Br17  1  0.62747715  0.80162313  0.26577831  1
  Br  Br18  1  0.05162313  0.62252285  0.01577831  1
  Br  Br19  1  0.44837687  0.37747715  0.51577831  1
  Br  Br20  1  0.62747715  0.19837687  0.23422169  1
  Br  Br21  1  0.87252285  0.80162313  0.73422169  1
  Br  Br22  1  0.44837687  0.62252285  0.98422169  1
  Br  Br23  1  0.05162313  0.37747715  0.48422169  1
  Br  Br24  1  0.12747715  0.80162313  0.23422169  1
  Br  Br25  1  0.37252285  0.19837687  0.73422169  1
  Br  Br26  1  0.94837687  0.37747715  0.98422169  1
  Br  Br27  1  0.55162313  0.62252285  0.48422169  1
  Br  Br28  1  0.37252285  0.80162313  0.76577831  1
  Br  Br29  1  0.12747715  0.19837687  0.26577831  1
  Br  Br30  1  0.55162313  0.37747715  0.01577831  1
  Br  Br31  1  0.94837687  0.62252285  0.51577831  1
  Br  Br32  1  0.37252285  0.69837687  0.26577831  1
  Br  Br33  1  0.12747715  0.30162313  0.76577831  1
  Br  Br34  1  0.55162313  0.12252285  0.51577831  1
  Br  Br35  1  0.94837687  0.87747715  0.01577831  1
  Br  Br36  1  0.12747715  0.69837687  0.73422169  1
  Br  Br37  1  0.37252285  0.30162313  0.23422169  1
  Br  Br38  1  0.94837687  0.12252285  0.48422169  1
  Br  Br39  1  0.55162313  0.87747715  0.98422169  1
  Br  Br40  1  0.62747715  0.30162313  0.73422169  1
  Br  Br41  1  0.87252285  0.69837687  0.23422169  1
  Br  Br42  1  0.44837687  0.87747715  0.48422169  1
  Br  Br43  1  0.05162313  0.12252285  0.98422169  1
  Br  Br44  1  0.87252285  0.30162313  0.26577831  1
  Br  Br45  1  0.62747715  0.69837687  0.76577831  1
  Br  Br46  1  0.05162313  0.87747715  0.51577831  1
  Br  Br47  1  0.44837687  0.12252285  0.01577831  1
  Br  Br48  1  0.02406850  0.70668353  0.00291751  1
  Br  Br49  1  0.47593150  0.29331647  0.50291751  1
  Br  Br50  1  0.54331647  0.77406850  0.25291751  1
  Br  Br51  1  0.95668353  0.22593150  0.75291751  1
  Br  Br52  1  0.47593150  0.70668353  0.99708249  1
  Br  Br53  1  0.02406850  0.29331647  0.49708249  1
  Br  Br54  1  0.95668353  0.77406850  0.74708249  1
  Br  Br55  1  0.54331647  0.22593150  0.24708249  1
  Br  Br56  1  0.97593150  0.29331647  0.99708249  1
  Br  Br57  1  0.52406850  0.70668353  0.49708249  1
  Br  Br58  1  0.45668353  0.22593150  0.74708249  1
  Br  Br59  1  0.04331647  0.77406850  0.24708249  1
  Br  Br60  1  0.52406850  0.29331647  0.00291751  1
  Br  Br61  1  0.97593150  0.70668353  0.50291751  1
  Br  Br62  1  0.04331647  0.22593150  0.25291751  1
  Br  Br63  1  0.45668353  0.77406850  0.75291751  1
  Br  Br64  1  0.52406850  0.20668353  0.50291751  1
  Br  Br65  1  0.97593150  0.79331647  0.00291751  1
  Br  Br66  1  0.04331647  0.27406850  0.75291751  1
  Br  Br67  1  0.45668353  0.72593150  0.25291751  1
  Br  Br68  1  0.97593150  0.20668353  0.49708249  1
  Br  Br69  1  0.52406850  0.79331647  0.99708249  1
  Br  Br70  1  0.45668353  0.27406850  0.24708249  1
  Br  Br71  1  0.04331647  0.72593150  0.74708249  1
  Br  Br72  1  0.47593150  0.79331647  0.49708249  1
  Br  Br73  1  0.02406850  0.20668353  0.99708249  1
  Br  Br74  1  0.95668353  0.72593150  0.24708249  1
  Br  Br75  1  0.54331647  0.27406850  0.74708249  1
  Br  Br76  1  0.02406850  0.79331647  0.50291751  1
  Br  Br77  1  0.47593150  0.20668353  0.00291751  1
  Br  Br78  1  0.54331647  0.72593150  0.75291751  1
  Br  Br79  1  0.95668353  0.27406850  0.25291751  1
  Br  Br80  1  0.14481352  0.87822464  0.33172673  1
  Br  Br81  1  0.35518648  0.12177536  0.83172673  1
  Br  Br82  1  0.37177536  0.89481352  0.58172673  1
  Br  Br83  1  0.12822464  0.10518648  0.08172673  1
  Br  Br84  1  0.35518648  0.87822464  0.66827327  1
  Br  Br85  1  0.14481352  0.12177536  0.16827327  1
  Br  Br86  1  0.12822464  0.89481352  0.41827327  1
  Br  Br87  1  0.37177536  0.10518648  0.91827327  1
  Br  Br88  1  0.85518648  0.12177536  0.66827327  1
  Br  Br89  1  0.64481352  0.87822464  0.16827327  1
  Br  Br90  1  0.62822464  0.10518648  0.41827327  1
  Br  Br91  1  0.87177536  0.89481352  0.91827327  1
  Br  Br92  1  0.64481352  0.12177536  0.33172673  1
  Br  Br93  1  0.85518648  0.87822464  0.83172673  1
  Br  Br94  1  0.87177536  0.10518648  0.58172673  1
  Br  Br95  1  0.62822464  0.89481352  0.08172673  1
  Br  Br96  1  0.64481352  0.37822464  0.83172673  1
  Br  Br97  1  0.85518648  0.62177536  0.33172673  1
  Br  Br98  1  0.87177536  0.39481352  0.08172673  1
  Br  Br99  1  0.62822464  0.60518648  0.58172673  1
  Br  Br100  1  0.85518648  0.37822464  0.16827327  1
  Br  Br101  1  0.64481352  0.62177536  0.66827327  1
  Br  Br102  1  0.62822464  0.39481352  0.91827327  1
  Br  Br103  1  0.87177536  0.60518648  0.41827327  1
  Br  Br104  1  0.35518648  0.62177536  0.16827327  1
  Br  Br105  1  0.14481352  0.37822464  0.66827327  1
  Br  Br106  1  0.12822464  0.60518648  0.91827327  1
  Br  Br107  1  0.37177536  0.39481352  0.41827327  1
  Br  Br108  1  0.14481352  0.62177536  0.83172673  1
  Br  Br109  1  0.35518648  0.37822464  0.33172673  1
  Br  Br110  1  0.37177536  0.60518648  0.08172673  1
  Br  Br111  1  0.12822464  0.39481352  0.58172673  1
  Br  Br112  1  0.12427025  0.73465593  0.18425337  1
  Br  Br113  1  0.37572975  0.26534407  0.68425337  1
  Br  Br114  1  0.51534407  0.87427025  0.43425337  1
  Br  Br115  1  0.98465593  0.12572975  0.93425337  1
  Br  Br116  1  0.37572975  0.73465593  0.81574663  1
  Br  Br117  1  0.12427025  0.26534407  0.31574663  1
  Br  Br118  1  0.98465593  0.87427025  0.56574663  1
  Br  Br119  1  0.51534407  0.12572975  0.06574663  1
  Br  Br120  1  0.87572975  0.26534407  0.81574663  1
  Br  Br121  1  0.62427025  0.73465593  0.31574663  1
  Br  Br122  1  0.48465593  0.12572975  0.56574663  1
  Br  Br123  1  0.01534407  0.87427025  0.06574663  1
  Br  Br124  1  0.62427025  0.26534407  0.18425337  1
  Br  Br125  1  0.87572975  0.73465593  0.68425337  1
  Br  Br126  1  0.01534407  0.12572975  0.43425337  1
  Br  Br127  1  0.48465593  0.87427025  0.93425337  1
  Br  Br128  1  0.62427025  0.23465593  0.68425337  1
  Br  Br129  1  0.87572975  0.76534407  0.18425337  1
  Br  Br130  1  0.01534407  0.37427025  0.93425337  1
  Br  Br131  1  0.48465593  0.62572975  0.43425337  1
  Br  Br132  1  0.87572975  0.23465593  0.31574663  1
  Br  Br133  1  0.62427025  0.76534407  0.81574663  1
  Br  Br134  1  0.48465593  0.37427025  0.06574663  1
  Br  Br135  1  0.01534407  0.62572975  0.56574663  1
  Br  Br136  1  0.37572975  0.76534407  0.31574663  1
  Br  Br137  1  0.12427025  0.23465593  0.81574663  1
  Br  Br138  1  0.98465593  0.62572975  0.06574663  1
  Br  Br139  1  0.51534407  0.37427025  0.56574663  1
  Br  Br140  1  0.12427025  0.76534407  0.68425337  1
  Br  Br141  1  0.37572975  0.23465593  0.18425337  1
  Br  Br142  1  0.51534407  0.62572975  0.93425337  1
  Br  Br143  1  0.98465593  0.37427025  0.43425337  1
  Br  Br144  1  0.69257828  0.17284795  0.14539471  1
  Br  Br145  1  0.80742172  0.82715205  0.64539471  1
  Br  Br146  1  0.07715205  0.44257828  0.39539471  1
  Br  Br147  1  0.42284795  0.55742172  0.89539471  1
  Br  Br148  1  0.80742172  0.17284795  0.85460529  1
  Br  Br149  1  0.69257828  0.82715205  0.35460529  1
  Br  Br150  1  0.42284795  0.44257828  0.60460529  1
  Br  Br151  1  0.07715205  0.55742172  0.10460529  1
  Br  Br152  1  0.30742172  0.82715205  0.85460529  1
  Br  Br153  1  0.19257828  0.17284795  0.35460529  1
  Br  Br154  1  0.92284795  0.55742172  0.60460529  1
  Br  Br155  1  0.57715205  0.44257828  0.10460529  1
  Br  Br156  1  0.19257828  0.82715205  0.14539471  1
  Br  Br157  1  0.30742172  0.17284795  0.64539471  1
  Br  Br158  1  0.57715205  0.55742172  0.39539471  1
  Br  Br159  1  0.92284795  0.44257828  0.89539471  1
  Br  Br160  1  0.19257828  0.67284795  0.64539471  1
  Br  Br161  1  0.30742172  0.32715205  0.14539471  1
  Br  Br162  1  0.57715205  0.94257828  0.89539471  1
  Br  Br163  1  0.92284795  0.05742172  0.39539471  1
  Br  Br164  1  0.30742172  0.67284795  0.35460529  1
  Br  Br165  1  0.19257828  0.32715205  0.85460529  1
  Br  Br166  1  0.92284795  0.94257828  0.10460529  1
  Br  Br167  1  0.57715205  0.05742172  0.60460529  1
  Br  Br168  1  0.80742172  0.32715205  0.35460529  1
  Br  Br169  1  0.69257828  0.67284795  0.85460529  1
  Br  Br170  1  0.42284795  0.05742172  0.10460529  1
  Br  Br171  1  0.07715205  0.94257828  0.60460529  1
  Br  Br172  1  0.69257828  0.32715205  0.64539471  1
  Br  Br173  1  0.80742172  0.67284795  0.14539471  1
  Br  Br174  1  0.07715205  0.05742172  0.89539471  1
  Br  Br175  1  0.42284795  0.94257828  0.39539471  1
  Br  Br176  1  0.05642563  0.89824102  0.78516419  1
  Br  Br177  1  0.44357437  0.10175898  0.28516419  1
  Br  Br178  1  0.35175898  0.80642563  0.03516419  1
  Br  Br179  1  0.14824102  0.19357437  0.53516419  1
  Br  Br180  1  0.44357437  0.89824102  0.21483581  1
  Br  Br181  1  0.05642563  0.10175898  0.71483581  1
  Br  Br182  1  0.14824102  0.80642563  0.96483581  1
  Br  Br183  1  0.35175898  0.19357437  0.46483581  1
  Br  Br184  1  0.94357437  0.10175898  0.21483581  1
  Br  Br185  1  0.55642563  0.89824102  0.71483581  1
  Br  Br186  1  0.64824102  0.19357437  0.96483581  1
  Br  Br187  1  0.85175898  0.80642563  0.46483581  1
  Br  Br188  1  0.55642563  0.10175898  0.78516419  1
  Br  Br189  1  0.94357437  0.89824102  0.28516419  1
  Br  Br190  1  0.85175898  0.19357437  0.03516419  1
  Br  Br191  1  0.64824102  0.80642563  0.53516419  1
  Br  Br192  1  0.55642563  0.39824102  0.28516419  1
  Br  Br193  1  0.94357437  0.60175898  0.78516419  1
  Br  Br194  1  0.85175898  0.30642563  0.53516419  1
  Br  Br195  1  0.64824102  0.69357437  0.03516419  1
  Br  Br196  1  0.94357437  0.39824102  0.71483581  1
  Br  Br197  1  0.55642563  0.60175898  0.21483581  1
  Br  Br198  1  0.64824102  0.30642563  0.46483581  1
  Br  Br199  1  0.85175898  0.69357437  0.96483581  1
  Br  Br200  1  0.44357437  0.60175898  0.71483581  1
  Br  Br201  1  0.05642563  0.39824102  0.21483581  1
  Br  Br202  1  0.14824102  0.69357437  0.46483581  1
  Br  Br203  1  0.35175898  0.30642563  0.96483581  1
  Br  Br204  1  0.05642563  0.60175898  0.28516419  1
  Br  Br205  1  0.44357437  0.39824102  0.78516419  1
  Br  Br206  1  0.35175898  0.69357437  0.53516419  1
  Br  Br207  1  0.14824102  0.30642563  0.03516419  1
  Br  Br208  1  0.09485295  0.30845632  0.24613105  1
  Br  Br209  1  0.40514705  0.69154368  0.74613105  1
  Br  Br210  1  0.94154368  0.84485295  0.49613105  1
  Br  Br211  1  0.55845632  0.15514705  0.99613105  1
  Br  Br212  1  0.40514705  0.30845632  0.75386895  1
  Br  Br213  1  0.09485295  0.69154368  0.25386895  1
  Br  Br214  1  0.55845632  0.84485295  0.50386895  1
  Br  Br215  1  0.94154368  0.15514705  0.00386895  1
  Br  Br216  1  0.90514705  0.69154368  0.75386895  1
  Br  Br217  1  0.59485295  0.30845632  0.25386895  1
  Br  Br218  1  0.05845632  0.15514705  0.50386895  1
  Br  Br219  1  0.44154368  0.84485295  0.00386895  1
  Br  Br220  1  0.59485295  0.69154368  0.24613105  1
  Br  Br221  1  0.90514705  0.30845632  0.74613105  1
  Br  Br222  1  0.44154368  0.15514705  0.49613105  1
  Br  Br223  1  0.05845632  0.84485295  0.99613105  1
  Br  Br224  1  0.59485295  0.80845632  0.74613105  1
  Br  Br225  1  0.90514705  0.19154368  0.24613105  1
  Br  Br226  1  0.44154368  0.34485295  0.99613105  1
  Br  Br227  1  0.05845632  0.65514705  0.49613105  1
  Br  Br228  1  0.90514705  0.80845632  0.25386895  1
  Br  Br229  1  0.59485295  0.19154368  0.75386895  1
  Br  Br230  1  0.05845632  0.34485295  0.00386895  1
  Br  Br231  1  0.44154368  0.65514705  0.50386895  1
  Br  Br232  1  0.40514705  0.19154368  0.25386895  1
  Br  Br233  1  0.09485295  0.80845632  0.75386895  1
  Br  Br234  1  0.55845632  0.65514705  0.00386895  1
  Br  Br235  1  0.94154368  0.34485295  0.50386895  1
  Br  Br236  1  0.09485295  0.19154368  0.74613105  1
  Br  Br237  1  0.40514705  0.80845632  0.24613105  1
  Br  Br238  1  0.94154368  0.65514705  0.99613105  1
  Br  Br239  1  0.55845632  0.34485295  0.49613105  1
  Br  Br240  1  0.14283211  0.64301466  0.79057874  1
  Br  Br241  1  0.35716789  0.35698534  0.29057874  1
  Br  Br242  1  0.60698534  0.89283211  0.04057874  1
  Br  Br243  1  0.89301466  0.10716789  0.54057874  1
  Br  Br244  1  0.35716789  0.64301466  0.20942126  1
  Br  Br245  1  0.14283211  0.35698534  0.70942126  1
  Br  Br246  1  0.89301466  0.89283211  0.95942126  1
  Br  Br247  1  0.60698534  0.10716789  0.45942126  1
  Br  Br248  1  0.85716789  0.35698534  0.20942126  1
  Br  Br249  1  0.64283211  0.64301466  0.70942126  1
  Br  Br250  1  0.39301466  0.10716789  0.95942126  1
  Br  Br251  1  0.10698534  0.89283211  0.45942126  1
  Br  Br252  1  0.64283211  0.35698534  0.79057874  1
  Br  Br253  1  0.85716789  0.64301466  0.29057874  1
  Br  Br254  1  0.10698534  0.10716789  0.04057874  1
  Br  Br255  1  0.39301466  0.89283211  0.54057874  1
  Br  Br256  1  0.64283211  0.14301466  0.29057874  1
  Br  Br257  1  0.85716789  0.85698534  0.79057874  1
  Br  Br258  1  0.10698534  0.39283211  0.54057874  1
  Br  Br259  1  0.39301466  0.60716789  0.04057874  1
  Br  Br260  1  0.85716789  0.14301466  0.70942126  1
  Br  Br261  1  0.64283211  0.85698534  0.20942126  1
  Br  Br262  1  0.39301466  0.39283211  0.45942126  1
  Br  Br263  1  0.10698534  0.60716789  0.95942126  1
  Br  Br264  1  0.35716789  0.85698534  0.70942126  1
  Br  Br265  1  0.14283211  0.14301466  0.20942126  1
  Br  Br266  1  0.89301466  0.60716789  0.45942126  1
  Br  Br267  1  0.60698534  0.39283211  0.95942126  1
  Br  Br268  1  0.14283211  0.85698534  0.29057874  1
  Br  Br269  1  0.35716789  0.14301466  0.79057874  1
  Br  Br270  1  0.60698534  0.60716789  0.54057874  1
  Br  Br271  1  0.89301466  0.39283211  0.04057874  1
  Br  Br272  1  0.01907953  0.84531272  0.19739035  1
  Br  Br273  1  0.48092047  0.15468728  0.69739035  1
  Br  Br274  1  0.40468728  0.76907953  0.44739035  1
  Br  Br275  1  0.09531272  0.23092047  0.94739035  1
  Br  Br276  1  0.48092047  0.84531272  0.80260965  1
  Br  Br277  1  0.01907953  0.15468728  0.30260965  1
  Br  Br278  1  0.09531272  0.76907953  0.55260965  1
  Br  Br279  1  0.40468728  0.23092047  0.05260965  1
  Br  Br280  1  0.98092047  0.15468728  0.80260965  1
  Br  Br281  1  0.51907953  0.84531272  0.30260965  1
  Br  Br282  1  0.59531272  0.23092047  0.55260965  1
  Br  Br283  1  0.90468728  0.76907953  0.05260965  1
  Br  Br284  1  0.51907953  0.15468728  0.19739035  1
  Br  Br285  1  0.98092047  0.84531272  0.69739035  1
  Br  Br286  1  0.90468728  0.23092047  0.44739035  1
  Br  Br287  1  0.59531272  0.76907953  0.94739035  1
  Br  Br288  1  0.51907953  0.34531272  0.69739035  1
  Br  Br289  1  0.98092047  0.65468728  0.19739035  1
  Br  Br290  1  0.90468728  0.26907953  0.94739035  1
  Br  Br291  1  0.59531272  0.73092047  0.44739035  1
  Br  Br292  1  0.98092047  0.34531272  0.30260965  1
  Br  Br293  1  0.51907953  0.65468728  0.80260965  1
  Br  Br294  1  0.59531272  0.26907953  0.05260965  1
  Br  Br295  1  0.90468728  0.73092047  0.55260965  1
  Br  Br296  1  0.48092047  0.65468728  0.30260965  1
  Br  Br297  1  0.01907953  0.34531272  0.80260965  1
  Br  Br298  1  0.09531272  0.73092047  0.05260965  1
  Br  Br299  1  0.40468728  0.26907953  0.55260965  1
  Br  Br300  1  0.01907953  0.65468728  0.69739035  1
  Br  Br301  1  0.48092047  0.34531272  0.19739035  1
  Br  Br302  1  0.40468728  0.73092047  0.94739035  1
  Br  Br303  1  0.09531272  0.26907953  0.44739035  1
  Br  Br304  1  0.82932267  0.00000000  0.25000000  1
  Br  Br305  1  0.67067733  0.00000000  0.75000000  1
  Br  Br306  1  0.25000000  0.57932267  0.50000000  1
  Br  Br307  1  0.25000000  0.42067733  0.00000000  1
  Br  Br308  1  0.17067733  0.00000000  0.75000000  1
  Br  Br309  1  0.32932267  0.00000000  0.25000000  1
  Br  Br310  1  0.75000000  0.42067733  0.50000000  1
  Br  Br311  1  0.75000000  0.57932267  -0.00000000  1
  Br  Br312  1  0.32932267  0.50000000  0.75000000  1
  Br  Br313  1  0.17067733  0.50000000  0.25000000  1
  Br  Br314  1  0.75000000  0.07932267  -0.00000000  1
  Br  Br315  1  0.75000000  0.92067733  0.50000000  1
  Br  Br316  1  0.67067733  0.50000000  0.25000000  1
  Br  Br317  1  0.82932267  0.50000000  0.75000000  1
  Br  Br318  1  0.25000000  0.92067733  -0.00000000  1
  Br  Br319  1  0.25000000  0.07932267  0.50000000  1
  Br  Br320  1  0.89569306  0.90264078  0.36911121  1
  Br  Br321  1  0.60430694  0.09735922  0.86911121  1
  Br  Br322  1  0.34735922  0.64569306  0.61911121  1
  Br  Br323  1  0.15264078  0.35430694  0.11911121  1
  Br  Br324  1  0.60430694  0.90264078  0.63088879  1
  Br  Br325  1  0.89569306  0.09735922  0.13088879  1
  Br  Br326  1  0.15264078  0.64569306  0.38088879  1
  Br  Br327  1  0.34735922  0.35430694  0.88088879  1
  Br  Br328  1  0.10430694  0.09735922  0.63088879  1
  Br  Br329  1  0.39569306  0.90264078  0.13088879  1
  Br  Br330  1  0.65264078  0.35430694  0.38088879  1
  Br  Br331  1  0.84735922  0.64569306  0.88088879  1
  Br  Br332  1  0.39569306  0.09735922  0.36911121  1
  Br  Br333  1  0.10430694  0.90264078  0.86911121  1
  Br  Br334  1  0.84735922  0.35430694  0.61911121  1
  Br  Br335  1  0.65264078  0.64569306  0.11911121  1
  Br  Br336  1  0.39569306  0.40264078  0.86911121  1
  Br  Br337  1  0.10430694  0.59735922  0.36911121  1
  Br  Br338  1  0.84735922  0.14569306  0.11911121  1
  Br  Br339  1  0.65264078  0.85430694  0.61911121  1
  Br  Br340  1  0.10430694  0.40264078  0.13088879  1
  Br  Br341  1  0.39569306  0.59735922  0.63088879  1
  Br  Br342  1  0.65264078  0.14569306  0.88088879  1
  Br  Br343  1  0.84735922  0.85430694  0.38088879  1
  Br  Br344  1  0.60430694  0.59735922  0.13088879  1
  Br  Br345  1  0.89569306  0.40264078  0.63088879  1
  Br  Br346  1  0.15264078  0.85430694  0.88088879  1
  Br  Br347  1  0.34735922  0.14569306  0.38088879  1
  Br  Br348  1  0.89569306  0.59735922  0.86911121  1
  Br  Br349  1  0.60430694  0.40264078  0.36911121  1
  Br  Br350  1  0.34735922  0.85430694  0.11911121  1
  Br  Br351  1  0.15264078  0.14569306  0.61911121  1
  Br  Br352  1  0.62900623  0.02814443  0.87879182  1
  Br  Br353  1  0.87099377  0.97185557  0.37879182  1
  Br  Br354  1  0.22185557  0.37900623  0.12879182  1
  Br  Br355  1  0.27814443  0.62099377  0.62879182  1
  Br  Br356  1  0.87099377  0.02814443  0.12120818  1
  Br  Br357  1  0.62900623  0.97185557  0.62120818  1
  Br  Br358  1  0.27814443  0.37900623  0.87120818  1
  Br  Br359  1  0.22185557  0.62099377  0.37120818  1
  Br  Br360  1  0.37099377  0.97185557  0.12120818  1
  Br  Br361  1  0.12900623  0.02814443  0.62120818  1
  Br  Br362  1  0.77814443  0.62099377  0.87120818  1
  Br  Br363  1  0.72185557  0.37900623  0.37120818  1
  Br  Br364  1  0.12900623  0.97185557  0.87879182  1
  Br  Br365  1  0.37099377  0.02814443  0.37879182  1
  Br  Br366  1  0.72185557  0.62099377  0.12879182  1
  Br  Br367  1  0.77814443  0.37900623  0.62879182  1
  Br  Br368  1  0.12900623  0.52814443  0.37879182  1
  Br  Br369  1  0.37099377  0.47185557  0.87879182  1
  Br  Br370  1  0.72185557  0.87900623  0.62879182  1
  Br  Br371  1  0.77814443  0.12099377  0.12879182  1
  Br  Br372  1  0.37099377  0.52814443  0.62120818  1
  Br  Br373  1  0.12900623  0.47185557  0.12120818  1
  Br  Br374  1  0.77814443  0.87900623  0.37120818  1
  Br  Br375  1  0.72185557  0.12099377  0.87120818  1
  Br  Br376  1  0.87099377  0.47185557  0.62120818  1
  Br  Br377  1  0.62900623  0.52814443  0.12120818  1
  Br  Br378  1  0.27814443  0.12099377  0.37120818  1
  Br  Br379  1  0.22185557  0.87900623  0.87120818  1
  Br  Br380  1  0.62900623  0.47185557  0.37879182  1
  Br  Br381  1  0.87099377  0.52814443  0.87879182  1
  Br  Br382  1  0.22185557  0.12099377  0.62879182  1
  Br  Br383  1  0.27814443  0.87900623  0.12879182  1
  Cl  Cl384  1  0.17984096  0.42984096  0.12500000  1
  Cl  Cl385  1  0.32015904  0.57015904  0.62500000  1
  Cl  Cl386  1  0.82015904  0.92984096  0.37500000  1
  Cl  Cl387  1  0.67984096  0.07015904  0.87500000  1
  Cl  Cl388  1  0.82015904  0.57015904  0.87500000  1
  Cl  Cl389  1  0.67984096  0.42984096  0.37500000  1
  Cl  Cl390  1  0.17984096  0.07015904  0.62500000  1
  Cl  Cl391  1  0.32015904  0.92984096  0.12500000  1
  Cl  Cl392  1  0.67984096  0.92984096  0.62500000  1
  Cl  Cl393  1  0.82015904  0.07015904  0.12500000  1
  Cl  Cl394  1  0.32015904  0.42984096  0.87500000  1
  Cl  Cl395  1  0.17984096  0.57015904  0.37500000  1
  Cl  Cl396  1  0.32015904  0.07015904  0.37500000  1
  Cl  Cl397  1  0.17984096  0.92984096  0.87500000  1
  Cl  Cl398  1  0.67984096  0.57015904  0.12500000  1
  Cl  Cl399  1  0.82015904  0.42984096  0.62500000  1
  Cl  Cl400  1  0.00000000  0.25000000  0.37500000  1
  Cl  Cl401  1  0.00000000  0.75000000  0.62500000  1
  Cl  Cl402  1  0.50000000  0.25000000  0.62500000  1
  Cl  Cl403  1  0.50000000  0.75000000  0.37500000  1
  Cl  Cl404  1  0.50000000  0.75000000  0.87500000  1
  Cl  Cl405  1  0.50000000  0.25000000  0.12500000  1
  Cl  Cl406  1  0.00000000  0.75000000  0.12500000  1
  Cl  Cl407  1  0.00000000  0.25000000  0.87500000  1
  Cl  Cl408  1  0.45751144  0.35500668  0.70178072  1
  Cl  Cl409  1  0.04248856  -0.35500668  1.20178072  1
  Cl  Cl410  1  -0.10500668  1.20751144  0.95178072  1
  Cl  Cl411  1  0.60500668  -0.20751144  1.45178072  1
  Cl  Cl412  1  0.04248856  0.35500668  -0.70178072  1
  Cl  Cl413  1  0.45751144  -0.35500668  -0.20178072  1
  Cl  Cl414  1  0.60500668  1.20751144  0.04821928  1
  Cl  Cl415  1  -0.10500668  -0.20751144  -0.45178072  1
  Cl  Cl416  1  -0.45751144  -0.35500668  -0.70178072  1
  Cl  Cl417  1  0.95751144  0.35500668  -0.20178072  1
  Cl  Cl418  1  1.10500668  -0.20751144  0.04821928  1
  Cl  Cl419  1  0.39499332  1.20751144  -0.45178072  1
  Cl  Cl420  1  0.95751144  -0.35500668  0.70178072  1
  Cl  Cl421  1  -0.45751144  0.35500668  1.20178072  1
  Cl  Cl422  1  0.39499332  -0.20751144  0.95178072  1
  Cl  Cl423  1  1.10500668  1.20751144  1.45178072  1
  Cl  Cl424  1  0.95751144  0.85500668  1.20178072  1
  Cl  Cl425  1  0.54248856  0.14499332  1.70178072  1
  Cl  Cl426  1  0.39499332  1.70751144  1.45178072  1
  Cl  Cl427  1  1.10500668  0.29248856  1.95178072  1
  Cl  Cl428  1  0.54248856  0.85500668  -0.20178072  1
  Cl  Cl429  1  0.95751144  0.14499332  0.29821928  1
  Cl  Cl430  1  1.10500668  1.70751144  0.54821928  1
  Cl  Cl431  1  0.39499332  0.29248856  0.04821928  1
  Cl  Cl432  1  0.04248856  0.14499332  -0.20178072  1
  Cl  Cl433  1  1.45751144  0.85500668  0.29821928  1
  Cl  Cl434  1  1.60500668  0.29248856  0.54821928  1
  Cl  Cl435  1  0.89499332  1.70751144  0.04821928  1
  Cl  Cl436  1  1.45751144  0.14499332  1.20178072  1
  Cl  Cl437  1  0.04248856  0.85500668  1.70178072  1
  Cl  Cl438  1  0.89499332  0.29248856  1.45178072  1
  Cl  Cl439  1  1.60500668  1.70751144  1.95178072  1
  Cl  Cl440  1  0.45331293  0.42771141  0.52643914  1
  Cl  Cl441  1  0.04668707  0.57228859  0.02643914  1
  Cl  Cl442  1  0.82228859  0.20331293  0.77643914  1
  Cl  Cl443  1  0.67771141  0.79668707  0.27643914  1
  Cl  Cl444  1  0.04668707  0.42771141  0.47356086  1
  Cl  Cl445  1  0.45331293  0.57228859  0.97356086  1
  Cl  Cl446  1  0.67771141  0.20331293  0.22356086  1
  Cl  Cl447  1  0.82228859  0.79668707  0.72356086  1
  Cl  Cl448  1  0.54668707  0.57228859  0.47356086  1
  Cl  Cl449  1  0.95331293  0.42771141  0.97356086  1
  Cl  Cl450  1  0.17771141  0.79668707  0.22356086  1
  Cl  Cl451  1  0.32228859  0.20331293  0.72356086  1
  Cl  Cl452  1  0.95331293  0.57228859  0.52643914  1
  Cl  Cl453  1  0.54668707  0.42771141  0.02643914  1
  Cl  Cl454  1  0.32228859  0.79668707  0.77643914  1
  Cl  Cl455  1  0.17771141  0.20331293  0.27643914  1
  Cl  Cl456  1  0.95331293  0.92771141  0.02643914  1
  Cl  Cl457  1  0.54668707  0.07228859  0.52643914  1
  Cl  Cl458  1  0.32228859  0.70331293  0.27643914  1
  Cl  Cl459  1  0.17771141  0.29668707  0.77643914  1
  Cl  Cl460  1  0.54668707  0.92771141  0.97356086  1
  Cl  Cl461  1  0.95331293  0.07228859  0.47356086  1
  Cl  Cl462  1  0.17771141  0.70331293  0.72356086  1
  Cl  Cl463  1  0.32228859  0.29668707  0.22356086  1
  Cl  Cl464  1  0.04668707  0.07228859  0.97356086  1
  Cl  Cl465  1  0.45331293  0.92771141  0.47356086  1
  Cl  Cl466  1  0.67771141  0.29668707  0.72356086  1
  Cl  Cl467  1  0.82228859  0.70331293  0.22356086  1
  Cl  Cl468  1  0.45331293  0.07228859  0.02643914  1
  Cl  Cl469  1  0.04668707  0.92771141  0.52643914  1
  Cl  Cl470  1  0.82228859  0.29668707  0.27643914  1
  Cl  Cl471  1  0.67771141  0.70331293  0.77643914  1
  Cl  Cl472  1  0.00000000  0.00000000  0.00000000  1
  Cl  Cl473  1  0.50000000  0.00000000  0.50000000  1
  Cl  Cl474  1  0.25000000  0.75000000  0.25000000  1
  Cl  Cl475  1  0.25000000  0.25000000  0.75000000  1
  Cl  Cl476  1  0.50000000  0.00000000  0.00000000  1
  Cl  Cl477  1  0.00000000  0.00000000  0.50000000  1
  Cl  Cl478  1  0.25000000  0.75000000  0.75000000  1
  Cl  Cl479  1  0.25000000  0.25000000  0.25000000  1
  Cl  Cl480  1  0.50000000  0.50000000  0.50000000  1
  Cl  Cl481  1  0.00000000  0.50000000  0.00000000  1
  Cl  Cl482  1  0.75000000  0.25000000  0.75000000  1
  Cl  Cl483  1  0.75000000  0.75000000  0.25000000  1
  Cl  Cl484  1  0.00000000  0.50000000  0.50000000  1
  Cl  Cl485  1  0.50000000  0.50000000  0.00000000  1
  Cl  Cl486  1  0.75000000  0.25000000  0.25000000  1
  Cl  Cl487  1  0.75000000  0.75000000  0.75000000  1
  Cl  Cl488  1  0.23784416  0.48784416  0.12500000  1
  Cl  Cl489  1  0.26215584  0.51215584  0.62500000  1
  Cl  Cl490  1  0.76215584  0.98784416  0.37500000  1
  Cl  Cl491  1  0.73784416  0.01215584  0.87500000  1
  Cl  Cl492  1  0.76215584  0.51215584  0.87500000  1
  Cl  Cl493  1  0.73784416  0.48784416  0.37500000  1
  Cl  Cl494  1  0.23784416  0.01215584  0.62500000  1
  Cl  Cl495  1  0.26215584  0.98784416  0.12500000  1
  Cl  Cl496  1  0.73784416  0.98784416  0.62500000  1
  Cl  Cl497  1  0.76215584  0.01215584  0.12500000  1
  Cl  Cl498  1  0.26215584  0.48784416  0.87500000  1
  Cl  Cl499  1  0.23784416  0.51215584  0.37500000  1
  Cl  Cl500  1  0.26215584  0.01215584  0.37500000  1
  Cl  Cl501  1  0.23784416  0.98784416  0.87500000  1
  Cl  Cl502  1  0.73784416  0.51215584  0.12500000  1
  Cl  Cl503  1  0.76215584  0.48784416  0.62500000  1
  Cl  Cl504  1  0.08992166  0.64362886  0.77271089  1
  Cl  Cl505  1  0.41007834  0.35637114  0.27271089  1
  Cl  Cl506  1  0.60637114  0.83992166  0.02271089  1
  Cl  Cl507  1  0.89362886  0.16007834  0.52271089  1
  Cl  Cl508  1  0.41007834  0.64362886  0.22728911  1
  Cl  Cl509  1  0.08992166  0.35637114  0.72728911  1
  Cl  Cl510  1  0.89362886  0.83992166  0.97728911  1
  Cl  Cl511  1  0.60637114  0.16007834  0.47728911  1
  Cl  Cl512  1  0.91007834  0.35637114  0.22728911  1
  Cl  Cl513  1  0.58992166  0.64362886  0.72728911  1
  Cl  Cl514  1  0.39362886  0.16007834  0.97728911  1
  Cl  Cl515  1  0.10637114  0.83992166  0.47728911  1
  Cl  Cl516  1  0.58992166  0.35637114  0.77271089  1
  Cl  Cl517  1  0.91007834  0.64362886  0.27271089  1
  Cl  Cl518  1  0.10637114  0.16007834  0.02271089  1
  Cl  Cl519  1  0.39362886  0.83992166  0.52271089  1
  Cl  Cl520  1  0.58992166  0.14362886  0.27271089  1
  Cl  Cl521  1  0.91007834  0.85637114  0.77271089  1
  Cl  Cl522  1  0.10637114  0.33992166  0.52271089  1
  Cl  Cl523  1  0.39362886  0.66007834  0.02271089  1
  Cl  Cl524  1  0.91007834  0.14362886  0.72728911  1
  Cl  Cl525  1  0.58992166  0.85637114  0.22728911  1
  Cl  Cl526  1  0.39362886  0.33992166  0.47728911  1
  Cl  Cl527  1  0.10637114  0.66007834  0.97728911  1
  Cl  Cl528  1  0.41007834  0.85637114  0.72728911  1
  Cl  Cl529  1  0.08992166  0.14362886  0.22728911  1
  Cl  Cl530  1  0.89362886  0.66007834  0.47728911  1
  Cl  Cl531  1  0.60637114  0.33992166  0.97728911  1
  Cl  Cl532  1  0.08992166  0.85637114  0.27271089  1
  Cl  Cl533  1  0.41007834  0.14362886  0.77271089  1
  Cl  Cl534  1  0.60637114  0.66007834  0.52271089  1
  Cl  Cl535  1  0.89362886  0.33992166  0.02271089  1
  Cl  Cl536  1  0.56234830  0.91313474  0.46603498  1
  Cl  Cl537  1  0.93765170  0.08686526  0.96603498  1
  Cl  Cl538  1  0.33686526  0.31234830  0.71603498  1
  Cl  Cl539  1  0.16313474  0.68765170  0.21603498  1
  Cl  Cl540  1  0.93765170  0.91313474  0.53396502  1
  Cl  Cl541  1  0.56234830  0.08686526  0.03396502  1
  Cl  Cl542  1  0.16313474  0.31234830  0.28396502  1
  Cl  Cl543  1  0.33686526  0.68765170  0.78396502  1
  Cl  Cl544  1  0.43765170  0.08686526  0.53396502  1
  Cl  Cl545  1  0.06234830  0.91313474  0.03396502  1
  Cl  Cl546  1  0.66313474  0.68765170  0.28396502  1
  Cl  Cl547  1  0.83686526  0.31234830  0.78396502  1
  Cl  Cl548  1  0.06234830  0.08686526  0.46603498  1
  Cl  Cl549  1  0.43765170  0.91313474  0.96603498  1
  Cl  Cl550  1  0.83686526  0.68765170  0.71603498  1
  Cl  Cl551  1  0.66313474  0.31234830  0.21603498  1
  Cl  Cl552  1  0.06234830  0.41313474  0.96603498  1
  Cl  Cl553  1  0.43765170  0.58686526  0.46603498  1
  Cl  Cl554  1  0.83686526  0.81234830  0.21603498  1
  Cl  Cl555  1  0.66313474  0.18765170  0.71603498  1
  Cl  Cl556  1  0.43765170  0.41313474  0.03396502  1
  Cl  Cl557  1  0.06234830  0.58686526  0.53396502  1
  Cl  Cl558  1  0.66313474  0.81234830  0.78396502  1
  Cl  Cl559  1  0.83686526  0.18765170  0.28396502  1
  Cl  Cl560  1  0.93765170  0.58686526  0.03396502  1
  Cl  Cl561  1  0.56234830  0.41313474  0.53396502  1
  Cl  Cl562  1  0.16313474  0.18765170  0.78396502  1
  Cl  Cl563  1  0.33686526  0.81234830  0.28396502  1
  Cl  Cl564  1  0.56234830  0.58686526  0.96603498  1
  Cl  Cl565  1  0.93765170  0.41313474  0.46603498  1
  Cl  Cl566  1  0.33686526  0.18765170  0.21603498  1
  Cl  Cl567  1  0.16313474  0.81234830  0.71603498  1
  Cl  Cl568  1  0.00000000  0.25000000  0.12500000  1
  Cl  Cl569  1  0.00000000  0.75000000  0.37500000  1
  Cl  Cl570  1  0.00000000  0.75000000  0.87500000  1
  Cl  Cl571  1  0.00000000  0.25000000  0.62500000  1
  Cl  Cl572  1  0.50000000  0.75000000  0.62500000  1
  Cl  Cl573  1  0.50000000  0.25000000  0.87500000  1
  Cl  Cl574  1  0.50000000  0.25000000  0.37500000  1
  Cl  Cl575  1  0.50000000  0.75000000  0.12500000  1
  Li  Li576  1  0.24506960  0.34597097  0.30116851  1
  Li  Li577  1  0.25493040  0.65402903  0.80116851  1
  Li  Li578  1  0.90402903  0.99506960  0.55116851  1
  Li  Li579  1  0.59597097  0.00493040  0.05116851  1
  Li  Li580  1  0.25493040  0.34597097  0.69883149  1
  Li  Li581  1  0.24506960  0.65402903  0.19883149  1
  Li  Li582  1  0.59597097  0.99506960  0.44883149  1
  Li  Li583  1  0.90402903  0.00493040  0.94883149  1
  Li  Li584  1  0.75493040  0.65402903  0.69883149  1
  Li  Li585  1  0.74506960  0.34597097  0.19883149  1
  Li  Li586  1  0.09597097  0.00493040  0.44883149  1
  Li  Li587  1  0.40402903  0.99506960  0.94883149  1
  Li  Li588  1  0.74506960  0.65402903  0.30116851  1
  Li  Li589  1  0.75493040  0.34597097  0.80116851  1
  Li  Li590  1  0.40402903  0.00493040  0.55116851  1
  Li  Li591  1  0.09597097  0.99506960  0.05116851  1
  Li  Li592  1  0.74506960  0.84597097  0.80116851  1
  Li  Li593  1  0.75493040  0.15402903  0.30116851  1
  Li  Li594  1  0.40402903  0.49506960  0.05116851  1
  Li  Li595  1  0.09597097  0.50493040  0.55116851  1
  Li  Li596  1  0.75493040  0.84597097  0.19883149  1
  Li  Li597  1  0.74506960  0.15402903  0.69883149  1
  Li  Li598  1  0.09597097  0.49506960  0.94883149  1
  Li  Li599  1  0.40402903  0.50493040  0.44883149  1
  Li  Li600  1  0.25493040  0.15402903  0.19883149  1
  Li  Li601  1  0.24506960  0.84597097  0.69883149  1
  Li  Li602  1  0.59597097  0.50493040  0.94883149  1
  Li  Li603  1  0.90402903  0.49506960  0.44883149  1
  Li  Li604  1  0.24506960  0.15402903  0.80116851  1
  Li  Li605  1  0.25493040  0.84597097  0.30116851  1
  Li  Li606  1  0.90402903  0.50493040  0.05116851  1
  Li  Li607  1  0.59597097  0.49506960  0.55116851  1
  Li  Li608  1  0.04252234  0.46784358  0.94511188  1
  Li  Li609  1  0.45747766  0.53215642  0.44511188  1
  Li  Li610  1  0.78215642  0.79252234  0.19511188  1
  Li  Li611  1  0.71784358  0.20747766  0.69511188  1
  Li  Li612  1  0.45747766  0.46784358  0.05488812  1
  Li  Li613  1  0.04252234  0.53215642  0.55488812  1
  Li  Li614  1  0.71784358  0.79252234  0.80488812  1
  Li  Li615  1  0.78215642  0.20747766  0.30488812  1
  Li  Li616  1  0.95747766  0.53215642  0.05488812  1
  Li  Li617  1  0.54252234  0.46784358  0.55488812  1
  Li  Li618  1  0.21784358  0.20747766  0.80488812  1
  Li  Li619  1  0.28215642  0.79252234  0.30488812  1
  Li  Li620  1  0.54252234  0.53215642  0.94511188  1
  Li  Li621  1  0.95747766  0.46784358  0.44511188  1
  Li  Li622  1  0.28215642  0.20747766  0.19511188  1
  Li  Li623  1  0.21784358  0.79252234  0.69511188  1
  Li  Li624  1  0.54252234  0.96784358  0.44511188  1
  Li  Li625  1  0.95747766  0.03215642  0.94511188  1
  Li  Li626  1  0.28215642  0.29252234  0.69511188  1
  Li  Li627  1  0.21784358  0.70747766  0.19511188  1
  Li  Li628  1  0.95747766  0.96784358  0.55488812  1
  Li  Li629  1  0.54252234  0.03215642  0.05488812  1
  Li  Li630  1  0.21784358  0.29252234  0.30488812  1
  Li  Li631  1  0.28215642  0.70747766  0.80488812  1
  Li  Li632  1  0.45747766  0.03215642  0.55488812  1
  Li  Li633  1  0.04252234  0.96784358  0.05488812  1
  Li  Li634  1  0.71784358  0.70747766  0.30488812  1
  Li  Li635  1  0.78215642  0.29252234  0.80488812  1
  Li  Li636  1  0.04252234  0.03215642  0.44511188  1
  Li  Li637  1  0.45747766  0.96784358  0.94511188  1
  Li  Li638  1  0.78215642  0.70747766  0.69511188  1
  Li  Li639  1  0.71784358  0.29252234  0.19511188  1
  Li  Li640  1  0.81385187  0.11402409  0.42447882  1
  Li  Li641  1  0.68614813  0.88597591  0.92447882  1
  Li  Li642  1  0.13597591  0.56385187  0.67447882  1
  Li  Li643  1  0.36402409  0.43614813  0.17447882  1
  Li  Li644  1  0.68614813  0.11402409  0.57552118  1
  Li  Li645  1  0.81385187  0.88597591  0.07552118  1
  Li  Li646  1  0.36402409  0.56385187  0.32552118  1
  Li  Li647  1  0.13597591  0.43614813  0.82552118  1
  Li  Li648  1  0.18614813  0.88597591  0.57552118  1
  Li  Li649  1  0.31385187  0.11402409  0.07552118  1
  Li  Li650  1  0.86402409  0.43614813  0.32552118  1
  Li  Li651  1  0.63597591  0.56385187  0.82552118  1
  Li  Li652  1  0.31385187  0.88597591  0.42447882  1
  Li  Li653  1  0.18614813  0.11402409  0.92447882  1
  Li  Li654  1  0.63597591  0.43614813  0.67447882  1
  Li  Li655  1  0.86402409  0.56385187  0.17447882  1
  Li  Li656  1  0.31385187  0.61402409  0.92447882  1
  Li  Li657  1  0.18614813  0.38597591  0.42447882  1
  Li  Li658  1  0.63597591  0.06385187  0.17447882  1
  Li  Li659  1  0.86402409  0.93614813  0.67447882  1
  Li  Li660  1  0.18614813  0.61402409  0.07552118  1
  Li  Li661  1  0.31385187  0.38597591  0.57552118  1
  Li  Li662  1  0.86402409  0.06385187  0.82552118  1
  Li  Li663  1  0.63597591  0.93614813  0.32552118  1
  Li  Li664  1  0.68614813  0.38597591  0.07552118  1
  Li  Li665  1  0.81385187  0.61402409  0.57552118  1
  Li  Li666  1  0.36402409  0.93614813  0.82552118  1
  Li  Li667  1  0.13597591  0.06385187  0.32552118  1
  Li  Li668  1  0.81385187  0.38597591  0.92447882  1
  Li  Li669  1  0.68614813  0.61402409  0.42447882  1
  Li  Li670  1  0.13597591  0.93614813  0.17447882  1
  Li  Li671  1  0.36402409  0.06385187  0.67447882  1
  Li  Li672  1  0.91491129  0.16491129  0.12500000  1
  Li  Li673  1  0.58508871  0.83508871  0.62500000  1
  Li  Li674  1  0.08508871  0.66491129  0.37500000  1
  Li  Li675  1  0.41491129  0.33508871  0.87500000  1
  Li  Li676  1  0.08508871  0.83508871  0.87500000  1
  Li  Li677  1  0.41491129  0.16491129  0.37500000  1
  Li  Li678  1  0.91491129  0.33508871  0.62500000  1
  Li  Li679  1  0.58508871  0.66491129  0.12500000  1
  Li  Li680  1  0.41491129  0.66491129  0.62500000  1
  Li  Li681  1  0.08508871  0.33508871  0.12500000  1
  Li  Li682  1  0.58508871  0.16491129  0.87500000  1
  Li  Li683  1  0.91491129  0.83508871  0.37500000  1
  Li  Li684  1  0.58508871  0.33508871  0.37500000  1
  Li  Li685  1  0.91491129  0.66491129  0.87500000  1
  Li  Li686  1  0.41491129  0.83508871  0.12500000  1
  Li  Li687  1  0.08508871  0.16491129  0.62500000  1
  Li  Li688  1  0.12848690  0.42110822  0.61458051  1
  Li  Li689  1  0.37151310  0.57889178  0.11458051  1
  Li  Li690  1  0.82889178  0.87848690  0.86458051  1
  Li  Li691  1  0.67110822  0.12151310  0.36458051  1
  Li  Li692  1  0.37151310  0.42110822  0.38541949  1
  Li  Li693  1  0.12848690  0.57889178  0.88541949  1
  Li  Li694  1  0.67110822  0.87848690  0.13541949  1
  Li  Li695  1  0.82889178  0.12151310  0.63541949  1
  Li  Li696  1  0.87151310  0.57889178  0.38541949  1
  Li  Li697  1  0.62848690  0.42110822  0.88541949  1
  Li  Li698  1  0.17110822  0.12151310  0.13541949  1
  Li  Li699  1  0.32889178  0.87848690  0.63541949  1
  Li  Li700  1  0.62848690  0.57889178  0.61458051  1
  Li  Li701  1  0.87151310  0.42110822  0.11458051  1
  Li  Li702  1  0.32889178  0.12151310  0.86458051  1
  Li  Li703  1  0.17110822  0.87848690  0.36458051  1
  Li  Li704  1  0.62848690  0.92110822  0.11458051  1
  Li  Li705  1  0.87151310  0.07889178  0.61458051  1
  Li  Li706  1  0.32889178  0.37848690  0.36458051  1
  Li  Li707  1  0.17110822  0.62151310  0.86458051  1
  Li  Li708  1  0.87151310  0.92110822  0.88541949  1
  Li  Li709  1  0.62848690  0.07889178  0.38541949  1
  Li  Li710  1  0.17110822  0.37848690  0.63541949  1
  Li  Li711  1  0.32889178  0.62151310  0.13541949  1
  Li  Li712  1  0.37151310  0.07889178  0.88541949  1
  Li  Li713  1  0.12848690  0.92110822  0.38541949  1
  Li  Li714  1  0.67110822  0.62151310  0.63541949  1
  Li  Li715  1  0.82889178  0.37848690  0.13541949  1
  Li  Li716  1  0.12848690  0.07889178  0.11458051  1
  Li  Li717  1  0.37151310  0.92110822  0.61458051  1
  Li  Li718  1  0.82889178  0.62151310  0.36458051  1
  Li  Li719  1  0.67110822  0.37848690  0.86458051  1
  Li  Li720  1  0.50509097  0.97994483  0.27840754  1
  Li  Li721  1  0.99490903  0.02005517  0.77840754  1
  Li  Li722  1  0.27005517  0.25509097  0.52840754  1
  Li  Li723  1  0.22994483  0.74490903  0.02840754  1
  Li  Li724  1  0.99490903  0.97994483  0.72159246  1
  Li  Li725  1  0.50509097  0.02005517  0.22159246  1
  Li  Li726  1  0.22994483  0.25509097  0.47159246  1
  Li  Li727  1  0.27005517  0.74490903  0.97159246  1
  Li  Li728  1  0.49490903  0.02005517  0.72159246  1
  Li  Li729  1  0.00509097  0.97994483  0.22159246  1
  Li  Li730  1  0.72994483  0.74490903  0.47159246  1
  Li  Li731  1  0.77005517  0.25509097  0.97159246  1
  Li  Li732  1  0.00509097  0.02005517  0.27840754  1
  Li  Li733  1  0.49490903  0.97994483  0.77840754  1
  Li  Li734  1  0.77005517  0.74490903  0.52840754  1
  Li  Li735  1  0.72994483  0.25509097  0.02840754  1
  Li  Li736  1  0.00509097  0.47994483  0.77840754  1
  Li  Li737  1  0.49490903  0.52005517  0.27840754  1
  Li  Li738  1  0.77005517  0.75509097  0.02840754  1
  Li  Li739  1  0.72994483  0.24490903  0.52840754  1
  Li  Li740  1  0.49490903  0.47994483  0.22159246  1
  Li  Li741  1  0.00509097  0.52005517  0.72159246  1
  Li  Li742  1  0.72994483  0.75509097  0.97159246  1
  Li  Li743  1  0.77005517  0.24490903  0.47159246  1
  Li  Li744  1  0.99490903  0.52005517  0.22159246  1
  Li  Li745  1  0.50509097  0.47994483  0.72159246  1
  Li  Li746  1  0.22994483  0.24490903  0.97159246  1
  Li  Li747  1  0.27005517  0.75509097  0.47159246  1
  Li  Li748  1  0.50509097  0.52005517  0.77840754  1
  Li  Li749  1  0.99490903  0.47994483  0.27840754  1
  Li  Li750  1  0.27005517  0.24490903  0.02840754  1
  Li  Li751  1  0.22994483  0.75509097  0.52840754  1
  Li  Li752  1  0.00000000  0.25000000  0.07230759  1
  Li  Li753  1  0.00000000  0.75000000  0.32230759  1
  Li  Li754  1  0.50000000  0.25000000  0.92769241  1
  Li  Li755  1  0.50000000  0.75000000  0.67769241  1
  Li  Li756  1  0.00000000  0.75000000  0.92769241  1
  Li  Li757  1  0.00000000  0.25000000  0.67769241  1
  Li  Li758  1  0.50000000  0.75000000  0.07230759  1
  Li  Li759  1  0.50000000  0.25000000  0.32230759  1
  Li  Li760  1  0.50000000  0.75000000  0.57230759  1
  Li  Li761  1  0.50000000  0.25000000  0.82230759  1
  Li  Li762  1  0.00000000  0.75000000  0.42769241  1
  Li  Li763  1  0.00000000  0.25000000  0.17769241  1
  Li  Li764  1  0.50000000  0.25000000  0.42769241  1
  Li  Li765  1  0.50000000  0.75000000  0.17769241  1
  Li  Li766  1  0.00000000  0.25000000  0.57230759  1
  Li  Li767  1  0.00000000  0.75000000  0.82230759  1
  Zr  Zr768  1  0.71936379  0.22028173  0.38174833  1
  Zr  Zr769  1  0.78063621  0.77971827  0.88174833  1
  Zr  Zr770  1  0.02971827  0.46936379  0.63174833  1
  Zr  Zr771  1  0.47028173  0.53063621  0.13174833  1
  Zr  Zr772  1  0.78063621  0.22028173  0.61825167  1
  Zr  Zr773  1  0.71936379  0.77971827  0.11825167  1
  Zr  Zr774  1  0.47028173  0.46936379  0.36825167  1
  Zr  Zr775  1  0.02971827  0.53063621  0.86825167  1
  Zr  Zr776  1  0.28063621  0.77971827  0.61825167  1
  Zr  Zr777  1  0.21936379  0.22028173  0.11825167  1
  Zr  Zr778  1  0.97028173  0.53063621  0.36825167  1
  Zr  Zr779  1  0.52971827  0.46936379  0.86825167  1
  Zr  Zr780  1  0.21936379  0.77971827  0.38174833  1
  Zr  Zr781  1  0.28063621  0.22028173  0.88174833  1
  Zr  Zr782  1  0.52971827  0.53063621  0.63174833  1
  Zr  Zr783  1  0.97028173  0.46936379  0.13174833  1
  Zr  Zr784  1  0.21936379  0.72028173  0.88174833  1
  Zr  Zr785  1  0.28063621  0.27971827  0.38174833  1
  Zr  Zr786  1  0.52971827  0.96936379  0.13174833  1
  Zr  Zr787  1  0.97028173  0.03063621  0.63174833  1
  Zr  Zr788  1  0.28063621  0.72028173  0.11825167  1
  Zr  Zr789  1  0.21936379  0.27971827  0.61825167  1
  Zr  Zr790  1  0.97028173  0.96936379  0.86825167  1
  Zr  Zr791  1  0.52971827  0.03063621  0.36825167  1
  Zr  Zr792  1  0.78063621  0.27971827  0.11825167  1
  Zr  Zr793  1  0.71936379  0.72028173  0.61825167  1
  Zr  Zr794  1  0.47028173  0.03063621  0.86825167  1
  Zr  Zr795  1  0.02971827  0.96936379  0.36825167  1
  Zr  Zr796  1  0.71936379  0.27971827  0.88174833  1
  Zr  Zr797  1  0.78063621  0.72028173  0.38174833  1
  Zr  Zr798  1  0.02971827  0.03063621  0.13174833  1
  Zr  Zr799  1  0.47028173  0.96936379  0.63174833  1
  Zr  Zr800  1  0.18984761  0.86444763  0.18053416  1
  Zr  Zr801  1  0.31015239  0.13555237  0.68053416  1
  Zr  Zr802  1  0.38555237  0.93984761  0.43053416  1
  Zr  Zr803  1  0.11444763  0.06015239  0.93053416  1
  Zr  Zr804  1  0.31015239  0.86444763  0.81946584  1
  Zr  Zr805  1  0.18984761  0.13555237  0.31946584  1
  Zr  Zr806  1  0.11444763  0.93984761  0.56946584  1
  Zr  Zr807  1  0.38555237  0.06015239  0.06946584  1
  Zr  Zr808  1  0.81015239  0.13555237  0.81946584  1
  Zr  Zr809  1  0.68984761  0.86444763  0.31946584  1
  Zr  Zr810  1  0.61444763  0.06015239  0.56946584  1
  Zr  Zr811  1  0.88555237  0.93984761  0.06946584  1
  Zr  Zr812  1  0.68984761  0.13555237  0.18053416  1
  Zr  Zr813  1  0.81015239  0.86444763  0.68053416  1
  Zr  Zr814  1  0.88555237  0.06015239  0.43053416  1
  Zr  Zr815  1  0.61444763  0.93984761  0.93053416  1
  Zr  Zr816  1  0.68984761  0.36444763  0.68053416  1
  Zr  Zr817  1  0.81015239  0.63555237  0.18053416  1
  Zr  Zr818  1  0.88555237  0.43984761  0.93053416  1
  Zr  Zr819  1  0.61444763  0.56015239  0.43053416  1
  Zr  Zr820  1  0.81015239  0.36444763  0.31946584  1
  Zr  Zr821  1  0.68984761  0.63555237  0.81946584  1
  Zr  Zr822  1  0.61444763  0.43984761  0.06946584  1
  Zr  Zr823  1  0.88555237  0.56015239  0.56946584  1
  Zr  Zr824  1  0.31015239  0.63555237  0.31946584  1
  Zr  Zr825  1  0.18984761  0.36444763  0.81946584  1
  Zr  Zr826  1  0.11444763  0.56015239  0.06946584  1
  Zr  Zr827  1  0.38555237  0.43984761  0.56946584  1
  Zr  Zr828  1  0.18984761  0.63555237  0.68053416  1
  Zr  Zr829  1  0.31015239  0.36444763  0.18053416  1
  Zr  Zr830  1  0.38555237  0.56015239  0.93053416  1
  Zr  Zr831  1  0.11444763  0.43984761  0.43053416  1
  Zr  Zr832  1  0.78633205  0.19537957  0.90147471  1
  Zr  Zr833  1  0.71366795  0.80462043  0.40147471  1
  Zr  Zr834  1  0.05462043  0.53633205  0.15147471  1
  Zr  Zr835  1  0.44537957  0.46366795  0.65147471  1
  Zr  Zr836  1  0.71366795  0.19537957  0.09852529  1
  Zr  Zr837  1  0.78633205  0.80462043  0.59852529  1
  Zr  Zr838  1  0.44537957  0.53633205  0.84852529  1
  Zr  Zr839  1  0.05462043  0.46366795  0.34852529  1
  Zr  Zr840  1  0.21366795  0.80462043  0.09852529  1
  Zr  Zr841  1  0.28633205  0.19537957  0.59852529  1
  Zr  Zr842  1  0.94537957  0.46366795  0.84852529  1
  Zr  Zr843  1  0.55462043  0.53633205  0.34852529  1
  Zr  Zr844  1  0.28633205  0.80462043  0.90147471  1
  Zr  Zr845  1  0.21366795  0.19537957  0.40147471  1
  Zr  Zr846  1  0.55462043  0.46366795  0.15147471  1
  Zr  Zr847  1  0.94537957  0.53633205  0.65147471  1
  Zr  Zr848  1  0.28633205  0.69537957  0.40147471  1
  Zr  Zr849  1  0.21366795  0.30462043  0.90147471  1
  Zr  Zr850  1  0.55462043  0.03633205  0.65147471  1
  Zr  Zr851  1  0.94537957  0.96366795  0.15147471  1
  Zr  Zr852  1  0.21366795  0.69537957  0.59852529  1
  Zr  Zr853  1  0.28633205  0.30462043  0.09852529  1
  Zr  Zr854  1  0.94537957  0.03633205  0.34852529  1
  Zr  Zr855  1  0.55462043  0.96366795  0.84852529  1
  Zr  Zr856  1  0.71366795  0.30462043  0.59852529  1
  Zr  Zr857  1  0.78633205  0.69537957  0.09852529  1
  Zr  Zr858  1  0.44537957  0.96366795  0.34852529  1
  Zr  Zr859  1  0.05462043  0.03633205  0.84852529  1
  Zr  Zr860  1  0.78633205  0.30462043  0.40147471  1
  Zr  Zr861  1  0.71366795  0.69537957  0.90147471  1
  Zr  Zr862  1  0.05462043  0.96366795  0.65147471  1
  Zr  Zr863  1  0.44537957  0.03633205  0.15147471  1
